Version 4
SHEET 1 880 680
WIRE -96 -48 -208 -48
WIRE 80 -48 -16 -48
WIRE 352 -48 80 -48
WIRE 560 -16 464 -16
WIRE 592 -16 560 -16
WIRE 352 16 320 16
WIRE -208 32 -208 -48
WIRE 80 32 80 -48
WIRE 320 112 320 16
WIRE 416 112 320 112
WIRE 560 112 560 -16
WIRE 560 112 496 112
WIRE -208 176 -208 112
WIRE 80 176 80 112
WIRE 320 176 320 112
WIRE 320 304 320 256
FLAG -208 176 0
FLAG 80 176 0
FLAG 320 304 0
FLAG 592 -16 Vo
SYMBOL TCLib\\OA_Ideal 544 32 M180
WINDOW 0 -228 -58 Invisible 2
WINDOW 123 -179 47 Left 0
SYMATTR InstName .
SYMATTR Value2 ""
SYMATTR Value ""
SYMBOL res -112 -64 M90
WINDOW 0 3 56 VBottom 2
WINDOW 3 27 56 VTop 2
SYMATTR InstName R1
SYMATTR Value 1k
SYMBOL voltage -208 16 R0
WINDOW 3 24 44 Left 2
WINDOW 123 0 0 Left 0
WINDOW 39 0 0 Left 0
SYMATTR Value ""
SYMATTR InstName Vi
SYMBOL res 64 16 R0
SYMATTR InstName R2
SYMATTR Value 1k
SYMBOL res 400 96 M90
WINDOW 0 3 56 VBottom 2
WINDOW 3 27 56 VTop 2
SYMATTR InstName R3
SYMATTR Value 3k
SYMBOL res 304 160 R0
SYMATTR InstName R4
SYMATTR Value 600
RECTANGLE Normal 640 336 -256 -96 2
