Version 4
SHEET 1 1280 680
WIRE 800 -32 704 -32
WIRE 992 -32 880 -32
WIRE 416 16 336 16
WIRE 592 16 496 16
WIRE 592 96 592 16
WIRE 704 96 704 -32
WIRE 704 96 592 96
WIRE 800 96 704 96
WIRE 992 128 992 -32
WIRE 992 128 912 128
WIRE 1024 128 992 128
WIRE 800 160 704 160
WIRE 416 176 336 176
WIRE 592 176 592 96
WIRE 592 176 496 176
WIRE 704 224 704 160
FLAG 1024 128 Vo
FLAG 704 224 0
FLAG 336 16 V1
FLAG 336 176 V2
SYMBOL res 400 0 M90
WINDOW 0 3 56 VBottom 2
WINDOW 3 27 56 VTop 2
SYMATTR InstName R1
SYMATTR Value 10k
SYMBOL res 400 160 M90
WINDOW 0 3 56 VBottom 2
WINDOW 3 27 56 VTop 2
SYMATTR InstName R2
SYMATTR Value 10k
SYMBOL res 784 -48 M90
WINDOW 0 3 56 VBottom 2
WINDOW 3 27 56 VTop 2
SYMATTR InstName R3
SYMATTR Value 100k
SYMBOL TCLib\\OA_Ideal 992 80 R0
WINDOW 0 -326 7 Invisible 2
SYMATTR InstName .
SYMATTR Value ""
SYMATTR Value2 ""
RECTANGLE Normal 1072 256 272 -80 2
