Version 4
SHEET 1 880 680
WIRE 528 -80 480 -80
WIRE 656 -80 608 -80
WIRE 768 -80 720 -80
WIRE 304 16 208 16
WIRE 480 16 480 -80
WIRE 480 16 384 16
WIRE 544 16 480 16
WIRE 768 48 768 -80
WIRE 768 48 656 48
WIRE 800 48 768 48
WIRE 208 64 208 16
WIRE 544 80 480 80
WIRE 208 192 208 144
WIRE 480 192 480 80
FLAG 480 192 0
FLAG 208 192 0
FLAG 800 48 Vo
SYMBOL voltage 208 48 R0
SYMATTR InstName Vi
SYMATTR Value ""
SYMBOL res 288 0 M90
WINDOW 0 3 56 VBottom 2
WINDOW 3 27 56 VTop 2
SYMATTR InstName R
SYMATTR Value ""
SYMBOL TCLib\\OA_Ideal 736 0 R0
WINDOW 0 -259 7 Invisible 2
SYMATTR InstName .
SYMATTR Value ""
SYMATTR Value2 ""
SYMBOL cap 656 -96 M90
WINDOW 0 0 32 VBottom 2
WINDOW 3 32 32 VTop 2
SYMATTR InstName C
SYMATTR Value ""
SYMBOL res 512 -96 M90
WINDOW 0 3 56 VBottom 2
WINDOW 3 27 56 VTop 2
SYMATTR InstName Rc
SYMATTR Value ""
RECTANGLE Normal 848 224 160 -128 2
