Version 4
SHEET 1 880 900
WIRE 224 -96 128 -96
WIRE 384 -96 304 -96
WIRE 464 -96 384 -96
WIRE 640 -96 544 -96
WIRE 128 -32 128 -96
WIRE 384 32 384 -96
WIRE 448 32 384 32
WIRE 640 64 640 -96
WIRE 640 64 560 64
WIRE 672 64 640 64
WIRE 224 96 128 96
WIRE 448 96 304 96
WIRE 128 160 128 96
WIRE 128 304 128 240
FLAG 672 64 Vo
FLAG 128 304 0
FLAG 128 -32 0
SYMBOL voltage 128 144 R0
WINDOW 3 16 97 Left 2
WINDOW 123 0 0 Left 0
WINDOW 39 0 0 Left 0
SYMATTR Value 10mV
SYMATTR InstName Vi
SYMBOL res 320 80 R90
WINDOW 0 3 56 VBottom 2
WINDOW 3 27 56 VTop 2
SYMATTR InstName Rg
SYMATTR Value 5k
SYMBOL TCLib\\OA_Ideal 640 16 R0
SYMATTR InstName U1
SYMATTR Value ""
SYMATTR Value2 ""
SYMBOL res 208 -112 M90
WINDOW 0 3 56 VBottom 2
WINDOW 3 27 56 VTop 2
SYMATTR InstName Ra
SYMATTR Value 1k
SYMBOL res 448 -112 M90
WINDOW 0 3 56 VBottom 2
WINDOW 3 27 56 VTop 2
SYMATTR InstName Rb
SYMATTR Value 99k
RECTANGLE Normal 720 336 80 -144 2
