Version 4
SHEET 1 1460 680
WIRE 432 -192 304 -192
WIRE 848 -192 512 -192
WIRE 160 -64 96 -64
WIRE 304 -64 304 -192
WIRE 304 -64 240 -64
WIRE 432 -64 304 -64
WIRE 592 -64 512 -64
WIRE 848 -64 848 -192
WIRE 976 -64 848 -64
WIRE 1168 -64 1056 -64
WIRE 96 0 96 -64
WIRE 304 32 304 -64
WIRE 400 32 304 32
WIRE 592 64 592 -64
WIRE 592 64 512 64
WIRE 688 64 592 64
WIRE 848 64 848 -64
WIRE 848 64 768 64
WIRE 992 64 848 64
WIRE 400 96 304 96
WIRE 1168 96 1168 -64
WIRE 1168 96 1104 96
WIRE 1200 96 1168 96
WIRE 992 128 848 128
WIRE 304 192 304 96
WIRE 848 192 848 128
WIRE 304 320 304 272
WIRE 848 320 848 272
FLAG 96 0 0
FLAG 304 320 0
FLAG 848 320 0
FLAG 1200 96 Vo
SYMBOL voltage 304 176 R0
SYMATTR InstName V1
SYMATTR Value ""
SYMBOL TCLib\\OA_Ideal 592 16 R0
SYMATTR InstName U1
SYMATTR Value ""
SYMATTR Value2 ""
SYMBOL res 528 -80 R90
WINDOW 0 3 56 VBottom 2
WINDOW 3 27 56 VTop 2
SYMATTR InstName R2
SYMATTR Value ""
SYMBOL res 256 -80 R90
WINDOW 0 3 56 VBottom 2
WINDOW 3 28 56 VTop 2
SYMATTR InstName R1
SYMATTR Value ""
SYMBOL res 416 -208 M90
WINDOW 0 3 56 VBottom 2
WINDOW 3 27 56 VTop 2
SYMATTR InstName R5
SYMATTR Value ""
SYMBOL res 672 48 M90
WINDOW 0 3 56 VBottom 2
WINDOW 3 27 56 VTop 2
SYMATTR InstName R3
SYMATTR Value ""
SYMBOL res 960 -80 M90
WINDOW 0 3 56 VBottom 2
WINDOW 3 27 56 VTop 2
SYMATTR InstName R4
SYMATTR Value ""
SYMBOL TCLib\\OA_Ideal 1184 48 R0
SYMATTR InstName U2
SYMATTR Value ""
SYMATTR Value2 ""
SYMBOL voltage 848 176 R0
SYMATTR InstName V2
SYMATTR Value ""
RECTANGLE Normal 1248 352 48 -256 2
