Version 4
SHEET 1 9348 6404
WIRE 5888 944 5888 880
WIRE 6112 944 6112 880
WIRE 5888 1104 5888 1024
WIRE 6112 1184 6112 1024
WIRE 5696 1232 5680 1232
WIRE 5888 1232 5888 1184
WIRE 5888 1232 5760 1232
WIRE 6048 1232 5888 1232
WIRE 5536 1264 5536 1232
WIRE 5168 1344 5056 1344
WIRE 5360 1344 5248 1344
WIRE 5408 1344 5360 1344
WIRE 5056 1392 5056 1344
WIRE 5360 1392 5360 1344
WIRE 5056 1504 5056 1472
WIRE 5360 1504 5360 1456
WIRE 5536 1504 5536 1424
WIRE 6112 1504 6112 1280
FLAG 5056 1504 0
FLAG 5360 1504 0
FLAG 6112 1504 0
FLAG 5536 1504 0
FLAG 5888 880 10V
FLAG 6112 880 10V
SYMBOL cap 5760 1216 R90
WINDOW 0 0 32 VBottom 2
WINDOW 3 32 32 VTop 2
SYMATTR InstName CRF
SYMATTR Value 1µ
SYMBOL voltage 5056 1376 R0
WINDOW 3 24 152 Invisible 2
SYMATTR Value SINE(0 1m 1Meg)
SYMATTR Value2 AC 1
SYMATTR InstName Vi
SYMBOL res 5264 1328 R90
WINDOW 0 0 56 VBottom 2
WINDOW 3 32 56 VTop 2
SYMATTR InstName Rg
SYMATTR Value 30k
SYMBOL cap 5344 1392 R0
WINDOW 3 24 56 Invisible 2
SYMATTR Value 107p
SYMATTR InstName Ce
SYMBOL npn 6048 1184 R0
WINDOW 3 56 68 Invisible 2
SYMATTR Value BC548ed
SYMATTR InstName Q1
SYMBOL res 5872 928 R0
SYMATTR InstName Rb
SYMATTR Value 4.25Meg
SYMBOL ind 5872 1088 R0
WINDOW 3 -28 76 Center 2
SYMATTR Value 10m
SYMATTR InstName LRF
SYMBOL res 6096 928 R0
SYMATTR InstName RL
SYMATTR Value 2750
SYMBOL TCLib\\Special\\L_Tap 5520 1248 R0
WINDOW 0 27 160 Invisible 0
WINDOW 3 46 170 Left 2
WINDOW 123 46 145 Left 2
SYMATTR InstName U3
SYMATTR Value 33.33uH
SYMATTR Value2 L
TEXT 5160 1224 Left 2 ;G
LINE Normal 5168 1248 5280 1248 2
LINE Normal 5280 1248 5280 1552 2
LINE Normal 5168 1552 5280 1552 2
RECTANGLE Normal 6240 1600 5008 816 2
