Version 4
SHEET 1 9348 6404
WIRE 2448 1024 2448 992
WIRE 2624 1024 2624 992
WIRE 2448 1136 2448 1104
WIRE 2624 1200 2624 1104
WIRE 1808 1248 1712 1248
WIRE 1968 1248 1888 1248
WIRE 2112 1248 1968 1248
WIRE 2192 1248 2112 1248
WIRE 2304 1248 2256 1248
WIRE 2448 1248 2448 1216
WIRE 2448 1248 2368 1248
WIRE 2560 1248 2448 1248
WIRE 1712 1328 1712 1248
WIRE 1968 1344 1968 1248
WIRE 2112 1344 2112 1248
WIRE 1712 1504 1712 1408
WIRE 1968 1504 1968 1408
WIRE 2112 1504 2112 1424
WIRE 2624 1504 2624 1296
FLAG 1712 1504 0
FLAG 1968 1504 0
FLAG 2112 1504 0
FLAG 2624 1504 0
FLAG 2448 992 10V
FLAG 2624 992 10V
SYMBOL voltage 1712 1312 M0
WINDOW 3 24 96 Invisible 2
SYMATTR InstName Vi
SYMBOL res 1792 1264 R270
WINDOW 0 27 56 VTop 2
WINDOW 3 2 56 VBottom 2
SYMATTR InstName Rs
SYMATTR Value 53k
SYMBOL cap 2304 1232 M90
WINDOW 0 0 32 VBottom 2
WINDOW 3 32 32 VTop 2
SYMATTR InstName Cs
SYMATTR Value 1µ
SYMBOL ind 2432 1120 R0
WINDOW 0 73 39 Right 2
WINDOW 3 70 71 Center 2
SYMATTR InstName L1
SYMATTR Value 10m
SYMBOL res 2432 1008 R0
SYMATTR InstName Rb
SYMATTR Value 930k
SYMBOL npn 2560 1200 R0
WINDOW 3 56 68 Invisible 2
SYMATTR InstName Q1
SYMBOL res 2608 1008 R0
SYMATTR InstName RL
SYMATTR Value 5k
SYMBOL ind 2096 1328 R0
WINDOW 0 59 39 Right 2
WINDOW 3 77 71 Center 2
SYMATTR InstName L
SYMATTR Value 844µ
SYMBOL cap 1952 1344 R0
SYMATTR InstName Ce
SYMATTR Value 120p
SYMBOL TCLib\\Special\\switch_sch 2176 1232 R0
SYMATTR InstName U1
RECTANGLE Normal 2720 1568 1632 944 2
