Version 4
SHEET 1 9348 6404
WIRE 4336 1056 4336 992
WIRE 4592 1056 4592 992
WIRE 4336 1200 4336 1136
WIRE 3632 1216 3520 1216
WIRE 3872 1216 3712 1216
WIRE 4048 1216 3872 1216
WIRE 4048 1264 4048 1216
WIRE 4592 1296 4592 1136
WIRE 3872 1312 3872 1216
WIRE 3520 1328 3520 1216
WIRE 4160 1344 4080 1344
WIRE 4336 1344 4336 1280
WIRE 4336 1344 4224 1344
WIRE 4528 1344 4336 1344
WIRE 3520 1504 3520 1408
WIRE 3872 1504 3872 1376
WIRE 4048 1504 4048 1424
WIRE 4592 1504 4592 1392
FLAG 3520 1504 0
FLAG 3872 1504 0
FLAG 4592 1504 0
FLAG 4048 1504 0
FLAG 4336 992 10V
FLAG 4592 992 10V
SYMBOL cap 4224 1328 R90
WINDOW 0 0 32 VBottom 2
WINDOW 3 32 32 VTop 2
SYMATTR InstName CRF
SYMATTR Value 100n
SYMBOL voltage 3520 1312 R0
WINDOW 3 24 152 Invisible 2
SYMATTR Value SINE(0 1m 1Meg)
SYMATTR Value2 AC 1
SYMATTR InstName Vi
SYMBOL res 3728 1200 R90
WINDOW 0 0 56 VBottom 2
WINDOW 3 32 56 VTop 2
SYMATTR InstName Rg
SYMATTR Value 120k
SYMBOL cap 3856 1312 R0
WINDOW 3 24 56 Invisible 2
SYMATTR Value 107p
SYMATTR InstName Ce
SYMBOL npn 4528 1296 R0
WINDOW 3 56 68 Invisible 2
SYMATTR Value BC548ed
SYMATTR InstName Q1
SYMBOL res 4320 1040 R0
SYMATTR InstName Rb
SYMATTR Value 4.25Meg
SYMBOL ind 4320 1184 R0
WINDOW 3 -27 72 Center 2
SYMATTR Value 10m
SYMATTR InstName LRF
SYMBOL res 4576 1040 R0
SYMATTR InstName RL
SYMATTR Value 2500
SYMBOL TCLib\\Special\\L_Tap 4064 1248 M0
WINDOW 0 27 160 Invisible 0
WINDOW 3 0 28 Invisible 0
SYMATTR InstName U2
SYMATTR Value2 L
TEXT 3592 1080 Left 2 ;G
LINE Normal 3600 1104 3744 1104 2
LINE Normal 3744 1104 3744 1568 2
LINE Normal 3600 1568 3744 1568 2
RECTANGLE Normal 4752 1600 3424 928 2
