Version 4
SHEET 1 7076 6404
WIRE 272 656 64 656
WIRE 512 688 384 688
WIRE 64 704 64 656
WIRE 272 720 208 720
WIRE 208 816 208 720
WIRE 320 816 208 816
WIRE 512 816 512 688
WIRE 512 816 400 816
WIRE 64 832 64 784
WIRE 208 864 208 816
WIRE 512 864 512 816
WIRE 208 992 208 944
WIRE 512 992 512 944
FLAG 64 832 0
FLAG 512 992 0
FLAG 208 992 0
SYMBOL TCLib\\OA_Ideal 464 736 M180
WINDOW 3 -176 32 Invisible 0
WINDOW 123 -176 48 Invisible 0
WINDOW 0 -113 80 Invisible 2
SYMATTR InstName U1
SYMBOL voltage 64 688 M0
WINDOW 3 24 96 Invisible 2
SYMATTR InstName Vi
SYMBOL res 192 848 R0
WINDOW 3 36 68 Left 2
SYMATTR Value 4.5k
SYMATTR InstName RL
SYMBOL res 496 848 R0
WINDOW 3 36 68 Left 2
SYMATTR Value 4.5k
SYMATTR InstName R2
SYMBOL res 304 800 M90
WINDOW 0 2 56 VBottom 2
WINDOW 3 27 56 VTop 2
SYMATTR InstName R1
SYMATTR Value 4.5k
SYMBOL TCLib\\Special\\arrow_curve 224 848 M0
SYMATTR Value VL
SYMATTR InstName X1
RECTANGLE Normal 592 1024 0 608 2
