Version 4
SHEET 1 7076 6404
WIRE 1152 592 1072 592
WIRE 1312 592 1232 592
WIRE 928 688 864 688
WIRE 1072 688 1072 592
WIRE 1072 688 1008 688
WIRE 1136 688 1072 688
WIRE 1312 720 1312 592
WIRE 1312 720 1248 720
WIRE 1376 720 1312 720
WIRE 864 752 864 688
WIRE 1136 752 1072 752
WIRE 1072 784 1072 752
WIRE 1072 896 1072 864
FLAG 864 752 0
FLAG 1072 896 0
SYMBOL TCLib\\OA_Ideal 1328 672 R0
WINDOW 0 -113 80 Invisible 2
WINDOW 3 -176 32 Invisible 0
WINDOW 123 -176 48 Invisible 0
SYMATTR InstName U4
SYMBOL res 1136 576 M90
WINDOW 0 4 56 VBottom 2
WINDOW 3 27 56 Invisible 2
SYMATTR InstName RL
SYMBOL res 912 672 M90
WINDOW 0 4 56 VBottom 2
WINDOW 3 27 56 Invisible 2
SYMATTR InstName R1
SYMBOL voltage 1072 768 M0
WINDOW 3 24 96 Invisible 2
SYMATTR InstName Vi
TEXT 840 576 Left 2 ;d
RECTANGLE Normal 1440 928 784 544 2
