Version 4
SHEET 1 912 684
WIRE 288 64 288 32
WIRE 432 64 432 32
WIRE 240 80 240 48
WIRE 384 80 384 48
WIRE 240 160 240 128
WIRE 384 160 384 128
WIRE 288 176 288 144
WIRE 432 176 432 144
WIRE 544 208 496 208
WIRE 656 208 608 208
WIRE 256 256 256 240
WIRE 304 256 304 240
WIRE 304 256 256 256
WIRE 448 256 448 240
WIRE 480 256 480 240
WIRE 480 256 448 256
WIRE 496 272 496 208
WIRE 544 272 496 272
WIRE 336 288 336 208
WIRE 608 288 608 208
WIRE 656 288 608 288
WIRE 80 320 48 320
WIRE 48 352 48 320
WIRE 208 352 176 352
WIRE 672 368 640 368
WIRE 176 416 176 352
WIRE 208 416 176 416
WIRE 528 432 528 400
WIRE 592 432 592 400
WIRE 592 432 528 432
WIRE 640 432 640 368
WIRE 672 432 640 432
WIRE 48 464 48 432
FLAG 48 464 0
SYMBOL voltage 48 336 R0
SYMATTR InstName V1
SYMBOL res 64 336 R270
WINDOW 0 27 56 VTop 2
WINDOW 3 2 56 VBottom 2
SYMATTR InstName R1
SYMBOL TCLib\\Special\\74HCU04\ Not 32 112 R270
SYMATTR InstName U1
SYMBOL TCLib\\Amp_Current 288 48 R0
SYMATTR InstName U2
SYMBOL TCLib\\Amp_Transimpedance 432 48 R0
SYMATTR InstName U3
SYMBOL TCLib\\Special\\arrow 256 240 R0
WINDOW 3 21 -18 Center 2
SYMATTR InstName X1
SYMBOL TCLib\\Special\\bypass 448 240 R0
SYMATTR InstName U4
SYMBOL Misc\\cell 544 208 R0
SYMATTR InstName V2
SYMBOL current 656 208 R0
SYMATTR InstName I1
SYMBOL diode 192 352 R0
WINDOW 0 25 0 Left 2
WINDOW 3 23 64 Left 2
SYMATTR InstName D1
SYMBOL TCLib\\LM311 480 352 R0
SYMATTR InstName U5
SYMBOL TCLib\\Special\\switch_sch 512 384 R0
SYMATTR InstName U6
SYMBOL zener 656 368 R0
WINDOW 0 25 0 Left 2
SYMATTR InstName D2
SYMBOL TCLib\\Special\\arrow_curve 288 192 R0
WINDOW 3 63 55 Left 2
SYMATTR InstName X2
RECTANGLE Normal 880 680 0 0 2
