Version 4
SHEET 1 912 684
WIRE 288 64 288 32
WIRE 432 64 432 32
WIRE 192 80 192 32
WIRE 240 80 240 48
WIRE 384 80 384 48
WIRE 192 160 192 128
WIRE 240 160 240 128
WIRE 384 160 384 128
WIRE 288 176 288 144
WIRE 432 176 432 144
WIRE 544 208 496 208
WIRE 656 208 608 208
WIRE 256 256 256 240
WIRE 304 256 304 240
WIRE 304 256 256 256
WIRE 448 256 448 240
WIRE 480 256 480 240
WIRE 480 256 448 256
WIRE 496 272 496 208
WIRE 544 272 496 272
WIRE 608 288 608 208
WIRE 656 288 608 288
WIRE 464 304 464 192
WIRE 80 320 48 320
WIRE 560 320 480 320
WIRE 48 352 48 320
WIRE 208 352 176 352
WIRE 672 368 640 368
WIRE 544 400 544 368
WIRE 176 416 176 352
WIRE 208 416 176 416
WIRE 496 416 496 384
WIRE 640 432 640 368
WIRE 672 432 640 432
WIRE 48 464 48 432
WIRE 496 496 496 464
WIRE 544 512 544 480
FLAG 48 464 0
SYMBOL voltage 48 336 R0
SYMATTR InstName V1
SYMBOL res 64 336 R270
WINDOW 0 27 56 VTop 2
WINDOW 3 2 56 VBottom 2
SYMATTR InstName R1
SYMBOL TCLib\\Special\\74HCU04\ Not 96 112 R0
WINDOW 0 17 16 Left 1
SYMATTR InstName U1
SYMBOL TCLib\\Amp_Current 288 48 R0
SYMATTR InstName U2
SYMBOL TCLib\\Amp_Transimpedance 432 48 R0
SYMATTR InstName U3
SYMBOL TCLib\\Special\\arrow 256 240 R0
WINDOW 3 21 -18 Center 2
SYMATTR InstName X1
SYMBOL TCLib\\Special\\bypass 448 240 R0
SYMATTR InstName U4
SYMBOL Misc\\cell 544 208 R0
SYMATTR InstName V2
SYMBOL current 656 208 R0
SYMATTR InstName I1
SYMATTR Value 1A
SYMBOL diode 192 352 R0
WINDOW 0 25 0 Left 2
WINDOW 3 23 64 Left 2
SYMATTR InstName D1
SYMBOL TCLib\\LM311 416 544 R90
WINDOW 0 -111 -16 Left 2
WINDOW 3 -112 7 Left 2
SYMATTR InstName U5
SYMBOL zener 784 384 R90
WINDOW 0 -4 32 VBottom 2
WINDOW 3 36 32 VTop 2
SYMATTR InstName D2
SYMBOL TCLib\\Special\\arrow_curve 320 192 R0
WINDOW 3 64 55 Left 2
SYMATTR InstName X2
SYMBOL TCLib\\Special\\ampmeter 192 64 R0
SYMATTR InstName V3
SYMBOL TCLib\\switch 544 384 R0
SYMATTR InstName U7
SYMBOL TCLib\\Special\\ampmeter 224 224 R90
WINDOW 0 -16 40 VBottom 2
SYMATTR InstName V4
SYMBOL TCLib\\Special\\ampmeter 144 288 R270
WINDOW 0 16 40 VTop 2
SYMATTR InstName V5
SYMBOL Misc\\cell 624 128 R90
WINDOW 0 -32 32 VBottom 2
WINDOW 3 32 32 VTop 2
SYMATTR InstName V6
SYMBOL current 768 128 R90
WINDOW 0 -32 40 VBottom 2
WINDOW 3 32 40 VTop 2
SYMATTR InstName I2
SYMATTR Value 1A
SYMBOL current 736 240 R270
WINDOW 0 32 40 VTop 2
WINDOW 3 -32 40 VBottom 2
SYMATTR InstName I3
SYMATTR Value 1A
SYMBOL TCLib\\Special\\arrow_curve 400 240 R90
WINDOW 3 63 55 Left 2
SYMATTR InstName X3
SYMBOL TCLib\\Special\\arrow_curve 464 368 R270
WINDOW 3 63 55 Left 2
SYMATTR InstName X4
SYMBOL TCLib\\Special\\arrow_curve 656 400 R180
WINDOW 3 63 55 Left 2
SYMATTR InstName X5
SYMBOL TCLib\\Special\\arrow 256 272 R90
WINDOW 3 21 -18 Center 2
SYMATTR InstName X6
SYMBOL TCLib\\Special\\arrow 352 208 R180
WINDOW 3 21 -18 Center 2
SYMATTR InstName X7
SYMBOL TCLib\\Special\\arrow 272 416 R270
WINDOW 3 21 -18 Center 2
SYMATTR InstName X8
SYMBOL zener 720 544 R180
WINDOW 0 24 64 Left 2
WINDOW 3 24 0 Left 2
SYMATTR InstName D3
SYMBOL zener 736 528 R270
WINDOW 0 36 32 VTop 2
WINDOW 3 -4 32 VBottom 2
SYMATTR InstName D4
SYMBOL TCLib\\LM311 176 608 R180
WINDOW 0 -111 -16 Left 2
WINDOW 3 -112 7 Left 2
SYMATTR InstName U6
SYMBOL TCLib\\LM311 32 480 R270
WINDOW 0 -111 -16 Left 2
WINDOW 3 -112 7 Left 2
SYMATTR InstName U8
RECTANGLE Normal 880 680 0 0 2
