Version 4
SHEET 1 2724 2420
WIRE 576 240 576 176
WIRE 736 240 736 192
WIRE 192 256 192 224
WIRE 368 256 368 192
WIRE 128 304 80 304
WIRE 496 304 432 304
WIRE 576 384 576 336
WIRE 736 384 736 336
WIRE 368 416 368 352
WIRE 192 432 192 352
WIRE 576 512 576 384
WIRE 192 576 192 528
WIRE 368 576 368 512
WIRE 368 736 368 672
WIRE 576 736 576 608
WIRE 736 768 736 384
WIRE 576 784 576 736
WIRE 192 816 192 672
WIRE 192 976 192 816
WIRE 368 1008 368 736
SYMBOL npn 128 256 R0
SYMATTR InstName Q6
SYMBOL npn 432 256 M0
SYMATTR InstName Q7
SYMBOL npn 240 432 R90
SYMATTR InstName Q8
SYMBOL npn 416 512 M270
SYMATTR InstName Q9
SYMBOL npn 256 672 R180
SYMATTR InstName Q10
SYMBOL npn 304 672 M180
SYMATTR InstName Q11
SYMBOL npn 320 736 M90
SYMATTR InstName Q12
SYMBOL npn 144 816 R270
SYMATTR InstName Q13
SYMBOL njf 528 240 R0
SYMATTR InstName J1
SYMBOL njf 640 384 R90
SYMATTR InstName J2
SYMBOL njf 624 608 R180
SYMATTR InstName J3
SYMBOL njf 512 736 R270
SYMATTR InstName J4
SYMBOL njf 784 240 M0
SYMATTR InstName J5
SYMBOL njf 656 608 M180
SYMATTR InstName J6
SYMBOL njf 672 384 M90
SYMATTR InstName J7
SYMBOL njf 784 736 M270
SYMATTR InstName J8
RECTANGLE Normal 912 656 0 0 2
