Version 4
SHEET 1 912 684
WIRE 800 16 576 16
WIRE 224 96 176 96
WIRE 672 96 672 64
WIRE 224 112 224 96
WIRE 304 112 224 112
WIRE 576 112 576 16
WIRE 624 112 576 112
WIRE 224 128 224 112
WIRE 384 128 384 96
WIRE 800 144 800 16
WIRE 800 144 736 144
WIRE 832 144 800 144
WIRE 304 176 304 112
WIRE 304 176 288 176
WIRE 320 176 304 176
WIRE 464 176 464 144
WIRE 464 176 448 176
WIRE 576 176 464 176
WIRE 624 176 576 176
WIRE 464 208 464 176
WIRE 576 208 576 176
WIRE 672 224 672 192
WIRE 384 272 384 224
WIRE 80 320 48 320
WIRE 192 320 160 320
WIRE 224 320 224 224
WIRE 224 320 192 320
WIRE 272 320 224 320
WIRE 320 320 272 320
WIRE 48 352 48 320
WIRE 192 352 192 320
WIRE 272 352 272 320
WIRE 464 352 464 288
WIRE 480 352 464 352
WIRE 576 352 576 288
WIRE 576 352 560 352
WIRE 384 416 384 368
WIRE 48 464 48 432
WIRE 192 464 192 432
WIRE 272 464 272 416
WIRE 464 464 464 352
WIRE 512 464 464 464
WIRE 576 464 576 352
WIRE 576 464 512 464
WIRE 512 512 512 464
WIRE 384 560 384 496
WIRE 512 608 512 592
FLAG 384 96 Vcc
FLAG 384 560 Vee
FLAG 192 464 0
FLAG 272 464 0
FLAG 48 464 0
FLAG 672 64 Vcc
FLAG 672 224 Vee
FLAG 832 144 Vo
FLAG 176 96 Vi
FLAG 512 608 0
SYMBOL voltage 48 336 R0
SYMATTR InstName V1
SYMBOL res 64 336 R270
WINDOW 0 27 56 VTop 2
WINDOW 3 2 56 VBottom 2
SYMATTR InstName R1
SYMBOL ind 176 336 R0
SYMATTR InstName L1
SYMBOL cap 256 352 R0
SYMATTR InstName C1
SYMBOL npn 320 272 R0
SYMATTR InstName Q1
SYMBOL res 368 400 R0
SYMATTR InstName R2
SYMBOL pnp 320 224 M180
SYMATTR InstName Q2
SYMBOL res 448 192 R0
SYMATTR InstName R3
SYMBOL res 560 192 R0
SYMATTR InstName R4
SYMBOL res 576 336 R90
WINDOW 0 2 56 VBottom 2
WINDOW 3 27 56 VTop 2
SYMATTR InstName R5
SYMBOL TCLib\\TL082 816 96 R0
WINDOW 0 -125 82 Left 2
SYMATTR InstName U1
SYMBOL pnp 288 224 R180
SYMATTR InstName Q3
SYMBOL res 496 496 R0
SYMATTR InstName R6
RECTANGLE Normal 880 680 0 0 2
