Version 4
SHEET 1 7076 6404
WIRE 464 160 384 160
WIRE 624 160 544 160
WIRE 240 256 176 256
WIRE 384 256 384 160
WIRE 384 256 320 256
WIRE 448 256 384 256
WIRE 624 288 624 160
WIRE 624 288 560 288
WIRE 688 288 624 288
WIRE 176 304 176 256
WIRE 448 320 384 320
WIRE 688 320 688 288
WIRE 176 432 176 384
WIRE 384 432 384 320
WIRE 688 432 688 400
FLAG 384 432 0
FLAG 176 432 0
FLAG 688 432 0
SYMBOL TCLib\\OA_Ideal 640 240 R0
WINDOW 0 -113 80 Invisible 2
WINDOW 3 -176 32 Invisible 0
WINDOW 123 -176 48 Invisible 0
SYMATTR InstName U1
SYMBOL res 448 144 M90
WINDOW 0 4 56 VBottom 2
WINDOW 3 27 56 Invisible 2
SYMATTR InstName R1
SYMBOL res 224 240 M90
WINDOW 0 4 56 VBottom 2
WINDOW 3 27 56 Invisible 2
SYMATTR InstName R2
SYMBOL voltage 176 288 M0
WINDOW 3 24 96 Invisible 2
SYMATTR InstName Vi
SYMBOL res 672 304 R0
WINDOW 3 36 76 Invisible 2
SYMATTR InstName RL
TEXT 144 144 Left 2 ;a
RECTANGLE Normal 752 496 96 112 2
