Version 4
SHEET 1 7076 6404
WIRE 288 48 96 48
WIRE 400 48 288 48
WIRE 560 48 480 48
WIRE 640 48 560 48
WIRE 800 48 720 48
WIRE 288 96 288 48
WIRE 800 144 800 48
WIRE 288 208 288 176
WIRE 48 304 48 96
WIRE 176 304 48 304
WIRE 320 304 256 304
WIRE 560 336 560 48
WIRE 560 336 432 336
WIRE 800 336 800 224
WIRE 320 368 208 368
WIRE 48 416 48 304
WIRE 208 416 208 368
WIRE 48 544 48 496
WIRE 208 544 208 496
FLAG 208 544 0
FLAG 48 544 0
FLAG 288 208 0
FLAG 800 336 0
SYMBOL TCLib\\OA_Ideal 512 288 R0
WINDOW 3 -176 32 Invisible 0
WINDOW 123 -176 48 Invisible 0
WINDOW 0 -113 80 Invisible 2
SYMATTR InstName U11
SYMBOL voltage 208 400 R0
WINDOW 3 24 96 Invisible 2
SYMATTR InstName Vi
SYMBOL res 160 288 M90
WINDOW 0 2 56 VBottom 2
WINDOW 3 27 56 Invisible 2
SYMATTR InstName R5
SYMBOL res 32 400 R0
WINDOW 3 36 76 Invisible 2
SYMATTR InstName R6
SYMBOL res 384 64 R270
WINDOW 0 27 56 VTop 2
WINDOW 3 2 56 Invisible 2
SYMATTR InstName R2
SYMBOL res 272 80 R0
WINDOW 3 36 76 Invisible 2
SYMATTR InstName R3
SYMBOL res 624 32 M90
WINDOW 0 2 56 VBottom 2
WINDOW 3 27 56 Invisible 2
SYMATTR InstName RL
SYMBOL res 784 128 R0
WINDOW 3 36 76 Invisible 2
SYMATTR InstName R1
SYMBOL TCLib\\Special\\res_pipe 32 32 R0
WINDOW 3 55 66 Invisible 2
SYMATTR InstName R4
RECTANGLE Normal 864 592 0 0 2
