Version 4
SHEET 1 7076 6404
WIRE 224 112 32 112
WIRE 320 112 224 112
WIRE 496 112 400 112
WIRE 688 112 496 112
WIRE 32 176 32 112
WIRE 224 176 224 112
WIRE 496 176 496 112
WIRE 688 176 688 112
WIRE 496 320 496 256
WIRE 224 352 224 256
WIRE 320 352 224 352
WIRE 688 384 688 256
WIRE 688 384 432 384
WIRE 320 416 224 416
WIRE 32 464 32 256
WIRE 224 464 224 416
WIRE 32 576 32 544
WIRE 224 576 224 544
FLAG 224 576 0
FLAG 32 576 0
FLAG 496 320 0
SYMBOL TCLib\\OA_Ideal 512 336 R0
WINDOW 3 -176 32 Invisible 0
WINDOW 123 -176 48 Invisible 0
WINDOW 0 -113 80 Invisible 2
SYMATTR InstName U14
SYMBOL voltage 224 160 R0
WINDOW 3 24 96 Invisible 2
SYMATTR InstName Vi
SYMBOL res 16 448 R0
SYMATTR InstName R1
SYMATTR Value 250
SYMBOL res 208 448 R0
SYMATTR InstName R2
SYMATTR Value 10k
SYMBOL res 16 160 R0
SYMATTR InstName RL
SYMATTR Value 250
SYMBOL res 416 96 R90
WINDOW 0 2 56 VBottom 2
WINDOW 3 27 56 VTop 2
SYMATTR InstName R3
SYMATTR Value 500
SYMBOL res 672 160 R0
SYMATTR InstName R5
SYMATTR Value 1K
SYMBOL res 480 160 R0
SYMATTR InstName R4
SYMATTR Value 1k
SYMBOL TCLib\\Special\\arrow_curve 64 160 R0
SYMATTR Value VL
SYMATTR InstName X1
RECTANGLE Normal 752 608 0 64 2
