Version 4
SHEET 1 7076 6404
WIRE 1152 160 1072 160
WIRE 1312 160 1232 160
WIRE 928 256 864 256
WIRE 1072 256 1072 160
WIRE 1072 256 1008 256
WIRE 1136 256 1072 256
WIRE 1312 288 1312 160
WIRE 1312 288 1248 288
WIRE 1376 288 1312 288
WIRE 864 320 864 256
WIRE 1136 320 1072 320
WIRE 1376 336 1376 288
WIRE 1072 352 1072 320
WIRE 1072 464 1072 432
WIRE 1376 464 1376 416
FLAG 864 320 0
FLAG 1072 464 0
FLAG 1376 464 0
SYMBOL TCLib\\OA_Ideal 1328 240 R0
WINDOW 0 -113 80 Invisible 2
WINDOW 3 -176 32 Invisible 0
WINDOW 123 -176 48 Invisible 0
SYMATTR InstName U2
SYMBOL res 1136 144 M90
WINDOW 0 4 56 VBottom 2
WINDOW 3 27 56 Invisible 2
SYMATTR InstName R1
SYMBOL res 912 240 M90
WINDOW 0 4 56 VBottom 2
WINDOW 3 27 56 Invisible 2
SYMATTR InstName R2
SYMBOL voltage 1072 336 M0
WINDOW 3 24 96 Invisible 2
SYMATTR InstName Vi
SYMBOL res 1360 320 R0
WINDOW 3 36 76 Invisible 2
SYMATTR InstName RL
TEXT 840 144 Left 2 ;b
RECTANGLE Normal 1440 496 784 112 2
