Version 4
SHEET 1 7076 6404
WIRE 352 48 80 48
WIRE 480 48 352 48
WIRE 688 48 560 48
WIRE 848 48 688 48
WIRE 80 128 80 48
WIRE 688 160 688 48
WIRE 848 160 848 48
WIRE 352 208 352 48
WIRE 688 288 688 240
WIRE 352 352 352 288
WIRE 416 352 352 352
WIRE 848 384 848 240
WIRE 848 384 528 384
WIRE 416 416 352 416
WIRE 80 432 80 208
WIRE 352 464 352 416
WIRE 80 576 80 512
WIRE 352 576 352 544
FLAG 352 576 0
FLAG 80 576 0
FLAG 688 288 0
SYMBOL TCLib\\OA_Ideal 608 336 R0
WINDOW 3 -176 32 Invisible 0
WINDOW 123 -176 48 Invisible 0
WINDOW 0 -113 80 Invisible 2
SYMATTR InstName U14
SYMBOL voltage 352 192 R0
WINDOW 3 24 96 Invisible 2
SYMATTR InstName Vi
SYMBOL res 64 416 R0
SYMATTR InstName R6
SYMATTR Value 250
SYMBOL res 336 448 R0
SYMATTR InstName R4
SYMATTR Value 10k
SYMBOL res 64 112 R0
SYMATTR InstName RL
SYMATTR Value 250
SYMBOL res 576 32 R90
WINDOW 0 2 56 VBottom 2
WINDOW 3 27 56 VTop 2
SYMATTR InstName R9
SYMATTR Value 500
SYMBOL res 832 144 R0
SYMATTR InstName R3
SYMATTR Value 1K
SYMBOL res 672 144 R0
SYMATTR InstName R2
SYMATTR Value 1k
SYMBOL TCLib\\Special\\arrow_curve 96 112 M0
SYMATTR Value VL
SYMATTR InstName X1
RECTANGLE Normal 912 608 -16 0 2
