Version 4
SHEET 1 7076 6404
WIRE 384 64 352 64
WIRE 400 64 384 64
WIRE 544 64 512 64
WIRE 560 64 544 64
WIRE 960 64 928 64
WIRE 976 64 960 64
WIRE 928 112 928 64
WIRE 352 160 352 64
WIRE 512 160 512 64
WIRE 928 224 928 192
WIRE 992 224 928 224
WIRE 1104 224 1056 224
WIRE 1200 224 1104 224
WIRE 928 272 928 224
WIRE 512 320 512 240
WIRE 864 320 512 320
WIRE 1200 320 1200 224
WIRE 512 352 512 320
WIRE 176 400 64 400
WIRE 352 400 352 240
WIRE 352 400 240 400
WIRE 448 400 352 400
WIRE 1200 432 1200 400
WIRE 64 480 64 400
WIRE 512 496 512 448
WIRE 688 496 512 496
WIRE 912 496 768 496
WIRE 1104 496 1104 224
WIRE 1104 496 944 496
WIRE 352 528 352 400
WIRE 928 544 928 368
WIRE 1040 544 928 544
WIRE 928 592 928 544
WIRE 512 608 512 496
WIRE 1040 608 1040 544
WIRE 64 720 64 560
WIRE 352 720 352 608
WIRE 512 720 512 688
WIRE 928 720 928 672
WIRE 1040 720 1040 672
FLAG 1200 432 0
FLAG 64 720 0
FLAG 352 720 0
FLAG 512 720 0
FLAG 928 720 0
FLAG 1040 720 0
FLAG 384 64 15V
FLAG 544 64 15V
FLAG 960 64 15V
SYMBOL npn 448 352 R0
WINDOW 3 56 68 Invisible 2
SYMATTR Value BC547C
SYMATTR InstName Q1
SYMBOL npn 864 272 R0
WINDOW 3 56 68 Invisible 2
SYMATTR Value BC547C
SYMATTR InstName Q2
SYMBOL cap 176 384 M90
WINDOW 0 0 32 VBottom 2
WINDOW 3 32 32 VTop 2
SYMATTR InstName Cg
SYMATTR Value 1µ
SYMBOL cap 1056 208 R90
WINDOW 0 0 32 VBottom 2
WINDOW 3 32 32 VTop 2
SYMATTR InstName Co
SYMATTR Value 1µ
SYMBOL res 1184 304 R0
SYMATTR InstName RL
SYMATTR Value 10k
SYMBOL res 912 96 R0
SYMATTR InstName Rc2
SYMATTR Value 5k
SYMBOL res 784 480 R90
WINDOW 0 2 56 VBottom 2
WINDOW 3 27 56 VTop 2
SYMATTR InstName Rf
SYMATTR Value 10k
SYMBOL voltage 64 464 R0
WINDOW 3 24 152 Invisible 2
SYMATTR Value SINE(0 100m 10k)
SYMATTR Value2 AC 1
SYMATTR InstName Vi
SYMBOL res 496 592 R0
SYMATTR InstName Re1
SYMATTR Value 1k
SYMBOL res 912 576 R0
SYMATTR InstName Re2
SYMATTR Value 4k7
SYMBOL cap 1024 608 R0
SYMATTR InstName Ce
SYMATTR Value 1µ
SYMBOL res 336 144 R0
SYMATTR InstName Ra
SYMATTR Value 22k
SYMBOL res 336 512 R0
SYMATTR InstName Rb
SYMATTR Value 2k5
SYMBOL res 496 144 R0
SYMATTR InstName Rc1
SYMATTR Value 10k
SYMBOL TCLib\\Special\\bypass 912 496 R0
SYMATTR InstName U16
RECTANGLE Normal 1280 768 0 0 2
