Version 4
SHEET 1 7076 6404
WIRE 192 128 112 128
WIRE 336 128 272 128
WIRE 560 128 336 128
WIRE 736 160 672 160
WIRE 896 160 816 160
WIRE 112 176 112 128
WIRE 336 176 336 128
WIRE 560 192 496 192
WIRE 496 272 496 192
WIRE 656 272 496 272
WIRE 896 272 896 160
WIRE 896 272 736 272
WIRE 112 304 112 256
WIRE 336 304 336 256
WIRE 496 304 496 272
WIRE 896 304 896 272
WIRE 496 432 496 384
WIRE 896 432 896 384
FLAG 112 304 0
FLAG 896 432 0
FLAG 496 432 0
FLAG 336 304 0
SYMBOL TCLib\\OA_Ideal 752 208 M180
WINDOW 3 -176 32 Invisible 0
WINDOW 123 -176 48 Invisible 0
WINDOW 0 -113 80 Invisible 2
SYMATTR InstName U5
SYMBOL voltage 112 160 M0
WINDOW 3 24 96 Invisible 2
SYMATTR InstName Vi
SYMBOL res 480 288 R0
WINDOW 3 36 68 Left 2
SYMATTR Value 10k
SYMATTR InstName R2
SYMBOL res 880 288 R0
WINDOW 3 36 68 Left 2
SYMATTR Value 10k
SYMATTR InstName R4
SYMBOL res 320 160 R0
WINDOW 3 36 68 Left 2
SYMATTR Value 20k
SYMATTR InstName R5
SYMBOL res 752 288 M270
WINDOW 0 27 56 VTop 2
WINDOW 3 2 56 VBottom 2
SYMATTR InstName R3
SYMATTR Value 5k
SYMBOL res 720 144 M90
WINDOW 0 2 56 VBottom 2
WINDOW 3 27 56 VTop 2
SYMATTR InstName R8
SYMATTR Value 5k
SYMBOL res 176 112 M90
WINDOW 0 2 56 VBottom 2
WINDOW 3 27 56 VTop 2
SYMATTR InstName R1
SYMATTR Value 5k
SYMBOL TCLib\\Special\\arrow_curve 720 144 R270
SYMATTR Value VL
SYMATTR InstName X1
RECTANGLE Normal 976 464 48 32 2
