Version 4
SHEET 1 7076 6404
WIRE 528 48 368 48
WIRE 720 48 608 48
WIRE 160 144 80 144
WIRE 368 144 368 48
WIRE 368 144 240 144
WIRE 432 144 368 144
WIRE 80 176 80 144
WIRE 720 176 720 48
WIRE 720 176 544 176
WIRE 432 208 368 208
WIRE 160 288 80 288
WIRE 368 288 368 208
WIRE 368 288 240 288
WIRE 528 288 368 288
WIRE 720 288 720 176
WIRE 720 288 608 288
WIRE 80 320 80 288
WIRE 368 320 368 288
WIRE 80 448 80 400
WIRE 368 448 368 400
FLAG 80 448 0
FLAG 368 448 0
FLAG 80 176 0
SYMBOL TCLib\\OA_Ideal 624 128 R0
WINDOW 3 -176 32 Invisible 0
WINDOW 123 -176 48 Invisible 0
WINDOW 0 -113 80 Invisible 2
SYMATTR InstName U9
SYMBOL voltage 80 304 M0
WINDOW 3 24 96 Invisible 2
SYMATTR InstName Vi
SYMBOL res 352 304 R0
WINDOW 3 36 76 Invisible 2
SYMATTR InstName RL
SYMBOL res 256 272 R90
WINDOW 0 2 56 VBottom 2
WINDOW 3 27 56 VTop 2
SYMATTR InstName R1
SYMBOL res 256 128 R90
WINDOW 0 2 56 VBottom 2
WINDOW 3 27 56 VTop 2
SYMATTR InstName Ra
SYMBOL res 624 32 R90
WINDOW 0 2 56 VBottom 2
WINDOW 3 27 56 VTop 2
SYMATTR InstName Rb
SYMBOL res 624 272 R90
WINDOW 0 2 56 VBottom 2
WINDOW 3 27 56 VTop 2
SYMATTR InstName R2
RECTANGLE Normal 736 480 16 0 2
