Version 4
SHEET 1 7076 6404
WIRE 576 128 480 128
WIRE 752 128 656 128
WIRE 240 224 96 224
WIRE 480 224 480 128
WIRE 480 224 320 224
WIRE 576 224 480 224
WIRE 752 224 752 128
WIRE 752 224 656 224
WIRE 480 272 480 224
WIRE 480 400 480 352
WIRE 96 480 96 224
WIRE 192 480 96 480
WIRE 368 480 272 480
WIRE 544 480 448 480
WIRE 752 512 752 224
WIRE 752 512 656 512
WIRE 544 544 480 544
WIRE 96 560 96 480
WIRE 752 560 752 512
WIRE 96 704 96 640
WIRE 480 704 480 544
WIRE 752 704 752 640
FLAG 752 704 0
FLAG 480 704 0
FLAG 96 704 0
FLAG 480 400 0
SYMBOL TCLib\\OA_Ideal 736 464 R0
WINDOW 3 -176 32 Invisible 0
WINDOW 123 -176 48 Invisible 0
WINDOW 0 -113 80 Invisible 2
SYMATTR InstName U13
SYMBOL res 736 544 R0
SYMATTR InstName R6
SYMATTR Value 1k
SYMBOL res 352 496 R270
WINDOW 0 27 56 VTop 2
WINDOW 3 2 56 VBottom 2
SYMATTR InstName R3
SYMATTR Value 10k
SYMBOL voltage 176 480 R270
WINDOW 0 32 56 VTop 2
WINDOW 3 -32 56 Invisible 2
SYMATTR InstName Vi
SYMBOL res 80 544 R0
SYMATTR InstName R1
SYMATTR Value 1k
SYMBOL res 464 256 R0
SYMATTR InstName R4
SYMATTR Value 2k
SYMBOL res 336 208 R90
WINDOW 0 2 56 VBottom 2
WINDOW 3 27 56 VTop 2
SYMATTR InstName R2
SYMATTR Value 1k
SYMBOL res 672 208 R90
WINDOW 0 2 56 VBottom 2
WINDOW 3 27 56 VTop 2
SYMATTR InstName R5
SYMATTR Value 3k
SYMBOL res 672 112 R90
WINDOW 0 2 56 VBottom 2
WINDOW 3 27 56 VTop 2
SYMATTR InstName RL
SYMATTR Value 1.5k
RECTANGLE Normal 816 736 64 80 2
