Version 4
SHEET 1 7076 6404
WIRE 1152 576 1072 576
WIRE 1312 576 1232 576
WIRE 928 688 832 688
WIRE 1072 688 1072 576
WIRE 1072 688 1008 688
WIRE 1136 688 1072 688
WIRE 1312 720 1312 576
WIRE 1312 720 1248 720
WIRE 1344 720 1312 720
WIRE 832 752 832 688
WIRE 1136 752 1072 752
WIRE 1072 784 1072 752
WIRE 1072 912 1072 864
FLAG 832 752 0
FLAG 1072 912 0
SYMBOL TCLib\\OA_Ideal 1328 672 R0
WINDOW 0 -113 80 Invisible 2
WINDOW 3 -176 32 Invisible 0
WINDOW 123 -176 48 Invisible 0
SYMATTR InstName U4
SYMBOL res 1136 560 M90
WINDOW 0 4 56 VBottom 2
WINDOW 3 27 56 Invisible 2
SYMATTR InstName RL
SYMBOL res 912 672 M90
WINDOW 0 4 56 VBottom 2
WINDOW 3 27 56 Invisible 2
SYMATTR InstName R1
SYMBOL voltage 1072 768 M0
WINDOW 3 24 96 Invisible 2
SYMATTR InstName Vi
RECTANGLE Normal 1360 944 800 528 2
