Version 4
SHEET 1 7076 6404
WIRE 1152 144 1072 144
WIRE 1312 144 1232 144
WIRE 928 256 832 256
WIRE 1072 256 1072 144
WIRE 1072 256 1008 256
WIRE 1136 256 1072 256
WIRE 1312 288 1312 144
WIRE 1312 288 1248 288
WIRE 1376 288 1312 288
WIRE 832 320 832 256
WIRE 1136 320 1072 320
WIRE 1376 320 1376 288
WIRE 1072 352 1072 320
WIRE 1376 432 1376 400
WIRE 1072 480 1072 432
FLAG 832 320 0
FLAG 1072 480 0
FLAG 1376 432 0
SYMBOL TCLib\\OA_Ideal 1328 240 R0
WINDOW 0 -113 80 Invisible 2
WINDOW 3 -176 32 Invisible 0
WINDOW 123 -176 48 Invisible 0
SYMATTR InstName U2
SYMBOL res 1136 128 M90
WINDOW 0 4 56 VBottom 2
WINDOW 3 27 56 Invisible 2
SYMATTR InstName R1
SYMBOL res 912 240 M90
WINDOW 0 4 56 VBottom 2
WINDOW 3 27 56 Invisible 2
SYMATTR InstName R2
SYMBOL voltage 1072 336 M0
WINDOW 3 24 96 Invisible 2
SYMATTR InstName Vi
SYMBOL res 1360 304 R0
WINDOW 3 36 76 Invisible 2
SYMATTR InstName RL
RECTANGLE Normal 1440 512 800 96 2
