Version 4
SHEET 1 7076 6404
WIRE 272 48 48 48
WIRE 624 48 272 48
WIRE 48 96 48 48
WIRE 272 96 272 48
WIRE 624 96 624 48
WIRE 624 240 624 176
WIRE 768 240 624 240
WIRE 880 240 768 240
WIRE 272 256 272 176
WIRE 352 256 272 256
WIRE 512 288 464 288
WIRE 624 304 624 240
WIRE 768 304 768 240
WIRE 880 304 880 240
WIRE 48 320 48 176
WIRE 128 320 48 320
WIRE 352 320 208 320
WIRE 624 416 624 384
WIRE 48 464 48 320
WIRE 128 464 48 464
WIRE 512 464 512 288
WIRE 512 464 208 464
WIRE 768 464 768 384
WIRE 768 464 512 464
WIRE 880 464 880 384
WIRE 880 464 768 464
WIRE 48 496 48 464
FLAG 48 496 0
FLAG 624 416 0
SYMBOL TCLib\\OA_Ideal 544 240 R0
WINDOW 3 -176 32 Invisible 0
WINDOW 123 -176 48 Invisible 0
WINDOW 0 -113 80 Invisible 2
SYMATTR InstName U12
SYMBOL voltage 224 320 R90
WINDOW 3 32 56 Invisible 2
WINDOW 0 -32 56 VBottom 2
SYMATTR InstName Vi
SYMBOL res 640 80 M0
WINDOW 3 36 76 Invisible 2
SYMATTR InstName R6
SYMBOL res 640 288 M0
WINDOW 3 36 76 Invisible 2
SYMATTR InstName R5
SYMBOL res 256 80 R0
WINDOW 3 36 76 Invisible 2
SYMATTR InstName R2
SYMBOL res 32 80 R0
WINDOW 3 36 76 Invisible 2
SYMATTR InstName R1
SYMBOL res 224 448 R90
WINDOW 0 2 56 VBottom 2
WINDOW 3 27 56 Invisible 2
SYMATTR InstName R3
SYMBOL res 752 288 R0
WINDOW 3 36 76 Invisible 2
SYMATTR InstName R4
SYMBOL res 864 288 R0
WINDOW 3 36 76 Invisible 2
SYMATTR InstName RL
RECTANGLE Normal 944 528 0 16 2
