Version 4
SHEET 1 7076 6404
WIRE 464 592 384 592
WIRE 624 592 544 592
WIRE 240 688 176 688
WIRE 384 688 384 592
WIRE 384 688 320 688
WIRE 448 688 384 688
WIRE 624 720 624 592
WIRE 624 720 560 720
WIRE 688 720 624 720
WIRE 176 736 176 688
WIRE 448 752 384 752
WIRE 176 864 176 816
WIRE 384 864 384 752
FLAG 384 864 0
FLAG 176 864 0
SYMBOL TCLib\\OA_Ideal 640 672 R0
WINDOW 0 -113 80 Invisible 2
WINDOW 3 -176 32 Invisible 0
WINDOW 123 -176 48 Invisible 0
SYMATTR InstName U3
SYMBOL res 448 576 M90
WINDOW 0 4 56 VBottom 2
WINDOW 3 27 56 Invisible 2
SYMATTR InstName RL
SYMBOL res 224 672 M90
WINDOW 0 4 56 VBottom 2
WINDOW 3 27 56 Invisible 2
SYMATTR InstName R1
SYMBOL voltage 176 720 M0
WINDOW 3 24 96 Invisible 2
SYMATTR InstName Vi
TEXT 144 576 Left 2 ;c
RECTANGLE Normal 752 928 96 544 2
