Version 4
SHEET 1 7076 6404
WIRE 240 64 80 64
WIRE 400 64 240 64
WIRE 560 64 400 64
WIRE 800 96 672 96
WIRE 240 112 240 64
WIRE 80 128 80 64
WIRE 560 128 496 128
WIRE 800 144 800 96
WIRE 496 176 496 128
WIRE 80 256 80 208
WIRE 240 256 240 192
WIRE 400 272 400 64
WIRE 576 272 400 272
WIRE 800 272 800 224
WIRE 800 272 656 272
WIRE 800 320 800 272
WIRE 800 432 800 400
FLAG 496 176 0
FLAG 800 432 0
FLAG 240 256 0
FLAG 80 256 0
SYMBOL TCLib\\OA_Ideal 752 48 R0
WINDOW 3 -176 32 Invisible 0
WINDOW 123 -176 48 Invisible 0
WINDOW 0 -113 80 Invisible 2
SYMATTR InstName U15
SYMBOL res 560 288 R270
WINDOW 0 27 56 VTop 2
WINDOW 3 2 56 VBottom 2
SYMATTR InstName Rf
SYMATTR Value 1k
SYMBOL res 784 128 R0
SYMATTR InstName RL
SYMATTR Value 10k
SYMBOL res 784 304 R0
SYMATTR InstName r
SYMATTR Value 100
SYMBOL res 224 96 R0
SYMATTR InstName Rs
SYMATTR Value 10k
SYMBOL current 80 208 R180
WINDOW 0 24 80 Left 2
WINDOW 3 24 0 Invisible 2
SYMATTR InstName Is
RECTANGLE Normal 928 496 0 0 2
