Version 4
SHEET 1 7076 6404
WIRE 464 160 384 160
WIRE 624 160 544 160
WIRE 1152 160 1072 160
WIRE 1312 160 1232 160
WIRE 240 256 176 256
WIRE 384 256 384 160
WIRE 384 256 320 256
WIRE 448 256 384 256
WIRE 928 256 864 256
WIRE 1072 256 1072 160
WIRE 1072 256 1008 256
WIRE 1136 256 1072 256
WIRE 624 288 624 160
WIRE 624 288 560 288
WIRE 688 288 624 288
WIRE 1312 288 1312 160
WIRE 1312 288 1248 288
WIRE 1376 288 1312 288
WIRE 176 304 176 256
WIRE 448 320 384 320
WIRE 688 320 688 288
WIRE 864 320 864 256
WIRE 1136 320 1072 320
WIRE 1376 336 1376 288
WIRE 1072 352 1072 320
WIRE 176 432 176 384
WIRE 384 432 384 320
WIRE 688 432 688 400
WIRE 1072 464 1072 432
WIRE 1376 464 1376 416
WIRE 464 592 384 592
WIRE 624 592 544 592
WIRE 1152 592 1072 592
WIRE 1312 592 1232 592
WIRE 240 688 176 688
WIRE 384 688 384 592
WIRE 384 688 320 688
WIRE 448 688 384 688
WIRE 928 688 864 688
WIRE 1072 688 1072 592
WIRE 1072 688 1008 688
WIRE 1136 688 1072 688
WIRE 624 720 624 592
WIRE 624 720 560 720
WIRE 688 720 624 720
WIRE 1312 720 1312 592
WIRE 1312 720 1248 720
WIRE 1376 720 1312 720
WIRE 176 736 176 688
WIRE 448 752 384 752
WIRE 864 752 864 688
WIRE 1136 752 1072 752
WIRE 1072 784 1072 752
WIRE 176 864 176 816
WIRE 384 864 384 752
WIRE 1072 896 1072 864
FLAG 384 432 0
FLAG 176 432 0
FLAG 688 432 0
FLAG 864 320 0
FLAG 1072 464 0
FLAG 1376 464 0
FLAG 384 864 0
FLAG 176 864 0
FLAG 864 752 0
FLAG 1072 896 0
SYMBOL TCLib\\OA_Ideal 640 240 R0
WINDOW 0 -113 80 Invisible 2
WINDOW 3 -176 32 Invisible 0
WINDOW 123 -176 48 Invisible 0
SYMATTR InstName U1
SYMBOL res 448 144 M90
WINDOW 0 4 56 VBottom 2
WINDOW 3 27 56 Invisible 2
SYMATTR InstName R1
SYMBOL res 224 240 M90
WINDOW 0 4 56 VBottom 2
WINDOW 3 27 56 Invisible 2
SYMATTR InstName R2
SYMBOL voltage 176 288 M0
WINDOW 3 24 96 Invisible 2
SYMATTR InstName Vg
SYMBOL res 672 304 R0
WINDOW 3 36 76 Invisible 2
SYMATTR InstName RL
SYMBOL TCLib\\OA_Ideal 1328 240 R0
WINDOW 0 -113 80 Invisible 2
WINDOW 3 -176 32 Invisible 0
WINDOW 123 -176 48 Invisible 0
SYMATTR InstName U2
SYMBOL res 1136 144 M90
WINDOW 0 4 56 VBottom 2
WINDOW 3 27 56 Invisible 2
SYMATTR InstName R1
SYMBOL res 912 240 M90
WINDOW 0 4 56 VBottom 2
WINDOW 3 27 56 Invisible 2
SYMATTR InstName R2
SYMBOL voltage 1072 336 M0
WINDOW 3 24 96 Invisible 2
SYMATTR InstName Vg
SYMBOL res 1360 320 R0
WINDOW 3 36 76 Invisible 2
SYMATTR InstName RL
SYMBOL TCLib\\OA_Ideal 640 672 R0
WINDOW 0 -113 80 Invisible 2
WINDOW 3 -176 32 Invisible 0
WINDOW 123 -176 48 Invisible 0
SYMATTR InstName U3
SYMBOL res 448 576 M90
WINDOW 0 4 56 VBottom 2
WINDOW 3 27 56 Invisible 2
SYMATTR InstName RL
SYMBOL res 224 672 M90
WINDOW 0 4 56 VBottom 2
WINDOW 3 27 56 Invisible 2
SYMATTR InstName R1
SYMBOL voltage 176 720 M0
WINDOW 3 24 96 Invisible 2
SYMATTR InstName Vg
SYMBOL TCLib\\OA_Ideal 1328 672 R0
WINDOW 0 -113 80 Invisible 2
WINDOW 3 -176 32 Invisible 0
WINDOW 123 -176 48 Invisible 0
SYMATTR InstName U4
SYMBOL res 1136 576 M90
WINDOW 0 4 56 VBottom 2
WINDOW 3 27 56 Invisible 2
SYMATTR InstName RL
SYMBOL res 912 672 M90
WINDOW 0 4 56 VBottom 2
WINDOW 3 27 56 Invisible 2
SYMATTR InstName R1
SYMBOL voltage 1072 768 M0
WINDOW 3 24 96 Invisible 2
SYMATTR InstName Vg
TEXT 144 144 Left 2 ;a
TEXT 840 144 Left 2 ;b
TEXT 144 576 Left 2 ;c
TEXT 840 576 Left 2 ;d
RECTANGLE Normal 1440 928 96 112 2
