Version 4
SHEET 1 7076 6404
WIRE 432 64 288 64
WIRE 288 96 288 64
WIRE 608 96 544 96
WIRE 768 96 688 96
WIRE 432 128 368 128
WIRE 160 208 80 208
WIRE 368 208 368 128
WIRE 368 208 240 208
WIRE 528 208 368 208
WIRE 768 208 768 96
WIRE 768 208 608 208
WIRE 80 240 80 208
WIRE 368 240 368 208
WIRE 768 240 768 208
WIRE 80 368 80 320
WIRE 368 368 368 320
WIRE 768 368 768 320
FLAG 80 368 0
FLAG 768 368 0
FLAG 368 368 0
FLAG 288 96 0
SYMBOL TCLib\\OA_Ideal 624 144 M180
WINDOW 3 -176 32 Invisible 0
WINDOW 123 -176 48 Invisible 0
WINDOW 0 -113 80 Invisible 2
SYMATTR InstName U10
SYMBOL voltage 80 224 M0
WINDOW 3 24 96 Invisible 2
SYMATTR InstName Vi
SYMBOL res 352 224 R0
WINDOW 3 36 68 Left 2
SYMATTR Value 20k
SYMATTR InstName R1
SYMBOL res 752 224 R0
WINDOW 3 36 68 Left 2
SYMATTR Value 1k
SYMATTR InstName R2
SYMBOL TCLib\\Special\\arrow 672 32 M0
SYMATTR InstName X3
SYMATTR Value VL
SYMBOL res 144 192 M90
WINDOW 0 2 56 VBottom 2
WINDOW 3 27 56 VTop 2
SYMATTR InstName Rg
SYMATTR Value 20k
SYMBOL res 624 192 R90
WINDOW 0 2 56 VBottom 2
WINDOW 3 27 56 VTop 2
SYMATTR InstName R3
SYMATTR Value 4k
SYMBOL res 592 80 M90
WINDOW 0 2 56 VBottom 2
WINDOW 3 27 56 VTop 2
SYMATTR InstName RL
SYMATTR Value 1.8k
RECTANGLE Normal 864 432 0 0 2
