Version 4
SHEET 1 7076 6404
WIRE 416 64 288 64
WIRE 288 96 288 64
WIRE 592 96 528 96
WIRE 736 96 672 96
WIRE 416 128 352 128
WIRE 208 224 144 224
WIRE 352 224 352 128
WIRE 352 224 288 224
WIRE 496 224 352 224
WIRE 736 224 736 96
WIRE 736 224 576 224
WIRE 144 272 144 224
WIRE 352 272 352 224
WIRE 736 272 736 224
WIRE 144 400 144 352
WIRE 352 400 352 352
WIRE 736 400 736 352
FLAG 144 400 0
FLAG 736 400 0
FLAG 352 400 0
FLAG 288 96 0
SYMBOL TCLib\\OA_Ideal 608 144 M180
WINDOW 3 -176 32 Invisible 0
WINDOW 123 -176 48 Invisible 0
WINDOW 0 -113 80 Invisible 2
SYMATTR InstName U10
SYMBOL voltage 144 256 M0
WINDOW 3 24 96 Invisible 2
SYMATTR InstName Vg
SYMBOL res 336 256 R0
WINDOW 3 36 68 Left 2
SYMATTR Value 20k
SYMATTR InstName R1
SYMBOL res 720 256 R0
WINDOW 3 36 68 Left 2
SYMATTR Value 1k
SYMATTR InstName R3
SYMBOL res 192 208 M90
WINDOW 0 2 56 VBottom 2
WINDOW 3 27 56 VTop 2
SYMATTR InstName Rg
SYMATTR Value 20k
SYMBOL res 592 208 R90
WINDOW 0 2 56 VBottom 2
WINDOW 3 27 56 VTop 2
SYMATTR InstName R2
SYMATTR Value 4k
SYMBOL res 576 80 M90
WINDOW 0 2 56 VBottom 2
WINDOW 3 27 56 VTop 2
SYMATTR InstName RL
SYMATTR Value 1.8k
SYMBOL TCLib\\Special\\arrow_curve 576 112 R270
SYMATTR Value VL
SYMATTR InstName X1
RECTANGLE Normal 816 432 -48 0 2
