Version 4
SHEET 1 7076 6404
WIRE 272 80 96 80
WIRE 352 80 272 80
WIRE 512 80 432 80
WIRE 592 80 512 80
WIRE 752 80 672 80
WIRE 272 112 272 80
WIRE 752 144 752 80
WIRE 272 224 272 192
WIRE 752 288 752 224
WIRE 48 304 48 128
WIRE 144 304 48 304
WIRE 320 304 224 304
WIRE 512 336 512 80
WIRE 512 336 432 336
WIRE 48 368 48 304
WIRE 320 368 208 368
WIRE 208 400 208 368
WIRE 48 512 48 448
WIRE 208 512 208 480
FLAG 208 512 0
FLAG 48 512 0
FLAG 272 224 0
FLAG 752 288 0
SYMBOL TCLib\\OA_Ideal 512 288 R0
WINDOW 3 -176 32 Invisible 0
WINDOW 123 -176 48 Invisible 0
WINDOW 0 -113 80 Invisible 2
SYMATTR InstName U11
SYMBOL voltage 208 384 R0
WINDOW 3 24 96 Invisible 2
SYMATTR InstName Vg
SYMBOL res 128 288 M90
WINDOW 0 2 56 VBottom 2
WINDOW 3 27 56 Invisible 2
SYMATTR InstName R3
SYMBOL res 32 352 R0
WINDOW 3 36 76 Invisible 2
SYMATTR InstName R1
SYMBOL res 336 96 R270
WINDOW 0 27 56 VTop 2
WINDOW 3 2 56 Invisible 2
SYMATTR InstName R5
SYMBOL res 256 96 R0
WINDOW 3 36 76 Invisible 2
SYMATTR InstName R4
SYMBOL res 576 64 M90
WINDOW 0 2 56 VBottom 2
WINDOW 3 27 56 Invisible 2
SYMATTR InstName RL
SYMBOL res 736 128 R0
WINDOW 3 36 76 Invisible 2
SYMATTR InstName R6
SYMBOL TCLib\\Special\\res_pipe 32 64 R0
WINDOW 3 55 66 Invisible 2
SYMATTR InstName R2
RECTANGLE Normal 816 544 16 32 2
