Version 4
SHEET 1 7076 6404
WIRE 320 96 112 96
WIRE 496 128 432 128
WIRE 640 128 576 128
WIRE 112 144 112 96
WIRE 320 160 256 160
WIRE 256 256 256 160
WIRE 400 256 256 256
WIRE 640 256 640 128
WIRE 640 256 480 256
WIRE 112 272 112 224
WIRE 256 304 256 256
WIRE 640 304 640 256
WIRE 256 432 256 384
WIRE 640 432 640 384
FLAG 112 272 0
FLAG 640 432 0
FLAG 256 432 0
SYMBOL TCLib\\OA_Ideal 512 176 M180
WINDOW 3 -176 32 Invisible 0
WINDOW 123 -176 48 Invisible 0
WINDOW 0 -113 80 Invisible 2
SYMATTR InstName U6
SYMBOL voltage 112 128 M0
WINDOW 3 24 96 Invisible 2
SYMATTR InstName Vg
SYMBOL res 240 288 R0
WINDOW 3 36 68 Left 2
SYMATTR Value 1k
SYMATTR InstName R1
SYMBOL res 624 288 R0
WINDOW 3 36 68 Left 2
SYMATTR Value 1k
SYMATTR InstName R3
SYMBOL res 480 112 M90
WINDOW 0 2 56 VBottom 2
WINDOW 3 27 56 VTop 2
SYMATTR InstName R2
SYMATTR Value 200
SYMBOL res 384 240 M90
WINDOW 0 2 56 VBottom 2
WINDOW 3 27 56 VTop 2
SYMATTR InstName RL
SYMATTR Value 500
SYMBOL TCLib\\Special\\arrow_curve 384 240 M90
SYMATTR Value VL
SYMATTR InstName X2
RECTANGLE Normal 704 464 32 48 2
