Version 4
SHEET 1 7076 6404
WIRE 320 96 96 96
WIRE 496 128 432 128
WIRE 656 128 576 128
WIRE 96 144 96 96
WIRE 320 160 256 160
WIRE 256 240 256 160
WIRE 416 240 256 240
WIRE 656 240 656 128
WIRE 656 240 496 240
WIRE 96 272 96 224
WIRE 256 272 256 240
WIRE 656 272 656 240
WIRE 256 400 256 352
WIRE 656 400 656 352
FLAG 96 272 0
FLAG 656 400 0
FLAG 256 400 0
SYMBOL TCLib\\OA_Ideal 512 176 M180
WINDOW 3 -176 32 Invisible 0
WINDOW 123 -176 48 Invisible 0
WINDOW 0 -113 80 Invisible 2
SYMATTR InstName U6
SYMBOL voltage 96 128 M0
WINDOW 3 24 96 Invisible 2
SYMATTR InstName Vi
SYMBOL res 240 256 R0
WINDOW 3 36 68 Left 2
SYMATTR Value 1k
SYMATTR InstName R3
SYMBOL res 640 256 R0
WINDOW 3 36 68 Left 2
SYMATTR Value 1k
SYMATTR InstName R2
SYMBOL TCLib\\Special\\arrow 480 288 R180
SYMATTR InstName X2
SYMBOL res 480 112 M90
WINDOW 0 2 56 VBottom 2
WINDOW 3 27 56 VTop 2
SYMATTR InstName R1
SYMATTR Value 200
SYMBOL res 400 224 M90
WINDOW 0 2 56 VBottom 2
WINDOW 3 27 56 VTop 2
SYMATTR InstName RL
SYMATTR Value 500
RECTANGLE Normal 752 480 0 0 2
