Version 4
SHEET 1 7076 6404
WIRE 448 48 368 48
WIRE 608 48 528 48
WIRE 208 144 128 144
WIRE 368 144 368 48
WIRE 368 144 288 144
WIRE 432 144 368 144
WIRE 608 176 608 48
WIRE 608 176 544 176
WIRE 128 208 128 144
WIRE 432 208 368 208
WIRE 208 304 128 304
WIRE 368 304 368 208
WIRE 368 304 288 304
WIRE 448 304 368 304
WIRE 608 304 608 176
WIRE 608 304 528 304
WIRE 128 336 128 304
WIRE 368 336 368 304
WIRE 128 448 128 416
WIRE 368 448 368 416
FLAG 128 448 0
FLAG 368 448 0
FLAG 128 208 0
SYMBOL TCLib\\OA_Ideal 624 128 R0
WINDOW 3 -176 32 Invisible 0
WINDOW 123 -176 48 Invisible 0
WINDOW 0 -113 80 Invisible 2
SYMATTR InstName U9
SYMBOL voltage 128 320 M0
WINDOW 3 24 96 Invisible 2
SYMATTR InstName Vg
SYMBOL res 352 320 R0
WINDOW 3 36 76 Invisible 2
SYMATTR InstName RL
SYMBOL res 304 288 R90
WINDOW 0 2 56 VBottom 2
WINDOW 3 27 56 VTop 2
SYMATTR InstName R1
SYMBOL res 304 128 R90
WINDOW 0 2 56 VBottom 2
WINDOW 3 27 56 VTop 2
SYMATTR InstName Ra
SYMBOL res 544 32 R90
WINDOW 0 2 56 VBottom 2
WINDOW 3 27 56 VTop 2
SYMATTR InstName Rb
SYMBOL res 544 288 R90
WINDOW 0 2 56 VBottom 2
WINDOW 3 27 56 VTop 2
SYMATTR InstName R2
RECTANGLE Normal 624 496 64 0 2
