Version 4
SHEET 1 7076 6404
WIRE 224 128 160 128
WIRE 368 128 304 128
WIRE 560 128 368 128
WIRE 736 160 672 160
WIRE 880 160 816 160
WIRE 160 176 160 128
WIRE 368 176 368 128
WIRE 560 192 496 192
WIRE 496 288 496 192
WIRE 640 288 496 288
WIRE 880 288 880 160
WIRE 880 288 720 288
WIRE 160 304 160 256
WIRE 368 304 368 256
WIRE 496 320 496 288
WIRE 880 320 880 288
WIRE 496 432 496 400
WIRE 880 432 880 400
FLAG 160 304 0
FLAG 880 432 0
FLAG 496 432 0
FLAG 368 304 0
SYMBOL TCLib\\OA_Ideal 752 208 M180
WINDOW 3 -176 32 Invisible 0
WINDOW 123 -176 48 Invisible 0
WINDOW 0 -113 80 Invisible 2
SYMATTR InstName U5
SYMBOL voltage 160 160 M0
WINDOW 3 24 96 Invisible 2
SYMATTR InstName Vg
SYMBOL res 480 304 R0
WINDOW 3 36 68 Left 2
SYMATTR Value 10k
SYMATTR InstName R3
SYMBOL res 864 304 R0
WINDOW 3 36 68 Left 2
SYMATTR Value 10k
SYMATTR InstName R5
SYMBOL res 352 160 R0
WINDOW 3 36 68 Left 2
SYMATTR Value 20k
SYMATTR InstName R2
SYMBOL res 736 304 M270
WINDOW 0 27 56 VTop 2
WINDOW 3 2 56 VBottom 2
SYMATTR InstName R4
SYMATTR Value 5k
SYMBOL res 720 144 M90
WINDOW 0 2 56 VBottom 2
WINDOW 3 27 56 VTop 2
SYMATTR InstName RL
SYMATTR Value 5k
SYMBOL res 208 112 M90
WINDOW 0 2 56 VBottom 2
WINDOW 3 27 56 VTop 2
SYMATTR InstName R1
SYMATTR Value 5k
SYMBOL TCLib\\Special\\arrow_curve 720 176 R270
SYMATTR Value VL
SYMATTR InstName X1
RECTANGLE Normal 960 464 96 48 2
