Version 4
SHEET 1 7076 6404
WIRE 176 -544 16 -544
WIRE 496 -544 176 -544
WIRE 16 -480 16 -544
WIRE 176 -480 176 -544
WIRE 496 -480 496 -544
WIRE 176 -336 176 -400
WIRE 240 -336 176 -336
WIRE 496 -336 496 -400
WIRE 608 -336 496 -336
WIRE 720 -336 608 -336
WIRE 400 -304 352 -304
WIRE 16 -272 16 -400
WIRE 96 -272 16 -272
WIRE 240 -272 176 -272
WIRE 496 -272 496 -336
WIRE 608 -272 608 -336
WIRE 720 -272 720 -336
WIRE 496 -160 496 -192
WIRE 16 -128 16 -272
WIRE 144 -128 16 -128
WIRE 400 -128 400 -304
WIRE 400 -128 224 -128
WIRE 608 -128 608 -192
WIRE 608 -128 400 -128
WIRE 720 -128 720 -192
WIRE 720 -128 608 -128
WIRE 16 -80 16 -128
FLAG 16 -80 0
FLAG 496 -160 0
SYMBOL TCLib\\OA_Ideal 432 -352 R0
WINDOW 3 -176 32 Invisible 0
WINDOW 123 -176 48 Invisible 0
WINDOW 0 -113 80 Invisible 2
SYMATTR InstName U12
SYMBOL voltage 192 -272 R90
WINDOW 3 32 56 Invisible 2
WINDOW 0 -32 56 VBottom 2
SYMATTR InstName Vg
SYMBOL res 512 -496 M0
WINDOW 3 36 76 Invisible 2
SYMATTR InstName R4
SYMBOL res 512 -288 M0
WINDOW 3 36 76 Invisible 2
SYMATTR InstName R5
SYMBOL res 160 -496 R0
WINDOW 3 36 76 Invisible 2
SYMATTR InstName R2
SYMBOL res 0 -496 R0
WINDOW 3 36 76 Invisible 2
SYMATTR InstName R1
SYMBOL res 240 -144 R90
WINDOW 0 2 56 VBottom 2
WINDOW 3 27 56 Invisible 2
SYMATTR InstName R3
SYMBOL res 592 -288 R0
WINDOW 3 36 76 Invisible 2
SYMATTR InstName R6
SYMBOL res 704 -288 R0
WINDOW 3 36 76 Invisible 2
SYMATTR InstName RL
RECTANGLE Normal 784 -48 -16 -560 2
