Version 4
SHEET 1 7076 6404
WIRE 608 48 480 48
WIRE 816 48 688 48
WIRE 176 176 48 176
WIRE 480 176 480 48
WIRE 480 176 256 176
WIRE 608 176 480 176
WIRE 816 176 816 48
WIRE 816 176 688 176
WIRE 480 256 480 176
WIRE 480 384 480 336
WIRE 48 480 48 176
WIRE 144 480 48 480
WIRE 320 480 224 480
WIRE 544 480 400 480
WIRE 816 512 816 176
WIRE 816 512 656 512
WIRE 544 544 480 544
WIRE 48 560 48 480
WIRE 816 576 816 512
WIRE 48 704 48 640
WIRE 480 704 480 544
WIRE 816 704 816 656
FLAG 816 704 0
FLAG 480 704 0
FLAG 48 704 0
FLAG 480 384 0
SYMBOL TCLib\\OA_Ideal 736 464 R0
WINDOW 3 -176 32 Invisible 0
WINDOW 123 -176 48 Invisible 0
WINDOW 0 -113 80 Invisible 2
SYMATTR InstName U13
SYMBOL res 800 560 R0
SYMATTR InstName R2
SYMATTR Value 1k
SYMBOL res 304 496 R270
WINDOW 0 27 56 VTop 2
WINDOW 3 2 56 VBottom 2
SYMATTR InstName R1
SYMATTR Value 10k
SYMBOL voltage 128 480 R270
WINDOW 0 32 56 VTop 2
WINDOW 3 -32 56 Invisible 2
SYMATTR InstName Vi
SYMBOL res 32 544 R0
SYMATTR InstName R7
SYMATTR Value 1k
SYMBOL res 464 240 R0
SYMATTR InstName R3
SYMATTR Value 2k
SYMBOL res 272 160 R90
WINDOW 0 2 56 VBottom 2
WINDOW 3 27 56 VTop 2
SYMATTR InstName R6
SYMATTR Value 1k
SYMBOL res 704 160 R90
WINDOW 0 2 56 VBottom 2
WINDOW 3 27 56 VTop 2
SYMATTR InstName R4
SYMATTR Value 3k
SYMBOL res 704 32 R90
WINDOW 0 2 56 VBottom 2
WINDOW 3 27 56 VTop 2
SYMATTR InstName RL
SYMATTR Value 1.5k
RECTANGLE Normal 928 752 0 0 2
