Version 4
SHEET 1 7076 6404
WIRE 464 144 384 144
WIRE 624 144 544 144
WIRE 1152 144 1072 144
WIRE 1312 144 1232 144
WIRE 240 256 144 256
WIRE 384 256 384 144
WIRE 384 256 320 256
WIRE 448 256 384 256
WIRE 928 256 832 256
WIRE 1072 256 1072 144
WIRE 1072 256 1008 256
WIRE 1136 256 1072 256
WIRE 624 288 624 144
WIRE 624 288 560 288
WIRE 688 288 624 288
WIRE 1312 288 1312 144
WIRE 1312 288 1248 288
WIRE 1376 288 1312 288
WIRE 144 304 144 256
WIRE 448 320 384 320
WIRE 688 320 688 288
WIRE 832 320 832 256
WIRE 1136 320 1072 320
WIRE 1376 320 1376 288
WIRE 1072 352 1072 320
WIRE 144 432 144 384
WIRE 384 432 384 320
WIRE 688 432 688 400
WIRE 1376 432 1376 400
WIRE 1072 480 1072 432
WIRE 464 576 384 576
WIRE 624 576 544 576
WIRE 1152 576 1072 576
WIRE 1312 576 1232 576
WIRE 240 688 144 688
WIRE 384 688 384 576
WIRE 384 688 320 688
WIRE 448 688 384 688
WIRE 928 688 832 688
WIRE 1072 688 1072 576
WIRE 1072 688 1008 688
WIRE 1136 688 1072 688
WIRE 624 720 624 576
WIRE 624 720 560 720
WIRE 688 720 624 720
WIRE 1312 720 1312 576
WIRE 1312 720 1248 720
WIRE 1376 720 1312 720
WIRE 144 736 144 688
WIRE 448 752 384 752
WIRE 832 752 832 688
WIRE 1136 752 1072 752
WIRE 1072 784 1072 752
WIRE 144 864 144 816
WIRE 384 864 384 752
WIRE 1072 912 1072 864
FLAG 384 432 0
FLAG 144 432 0
FLAG 688 432 0
FLAG 832 320 0
FLAG 1072 480 0
FLAG 1376 432 0
FLAG 384 864 0
FLAG 144 864 0
FLAG 832 752 0
FLAG 1072 912 0
SYMBOL TCLib\\OA_Ideal 640 240 R0
WINDOW 0 -113 80 Invisible 2
WINDOW 3 -176 32 Invisible 0
WINDOW 123 -176 48 Invisible 0
SYMATTR InstName U1
SYMBOL res 448 128 M90
WINDOW 0 4 56 VBottom 2
WINDOW 3 27 56 Invisible 2
SYMATTR InstName R1
SYMBOL res 224 240 M90
WINDOW 0 4 56 VBottom 2
WINDOW 3 27 56 Invisible 2
SYMATTR InstName R2
SYMBOL voltage 144 288 M0
WINDOW 3 24 96 Invisible 2
SYMATTR InstName Vi
SYMBOL res 672 304 R0
WINDOW 3 36 76 Invisible 2
SYMATTR InstName RL
SYMBOL TCLib\\OA_Ideal 1328 240 R0
WINDOW 0 -113 80 Invisible 2
WINDOW 3 -176 32 Invisible 0
WINDOW 123 -176 48 Invisible 0
SYMATTR InstName U2
SYMBOL res 1136 128 M90
WINDOW 0 4 56 VBottom 2
WINDOW 3 27 56 Invisible 2
SYMATTR InstName R1
SYMBOL res 912 240 M90
WINDOW 0 4 56 VBottom 2
WINDOW 3 27 56 Invisible 2
SYMATTR InstName R2
SYMBOL voltage 1072 336 M0
WINDOW 3 24 96 Invisible 2
SYMATTR InstName Vi
SYMBOL res 1360 304 R0
WINDOW 3 36 76 Invisible 2
SYMATTR InstName RL
SYMBOL TCLib\\OA_Ideal 640 672 R0
WINDOW 0 -113 80 Invisible 2
WINDOW 3 -176 32 Invisible 0
WINDOW 123 -176 48 Invisible 0
SYMATTR InstName U3
SYMBOL res 448 560 M90
WINDOW 0 4 56 VBottom 2
WINDOW 3 27 56 Invisible 2
SYMATTR InstName RL
SYMBOL res 224 672 M90
WINDOW 0 4 56 VBottom 2
WINDOW 3 27 56 Invisible 2
SYMATTR InstName R1
SYMBOL voltage 144 720 M0
WINDOW 3 24 96 Invisible 2
SYMATTR InstName Vi
SYMBOL TCLib\\OA_Ideal 1328 672 R0
WINDOW 0 -113 80 Invisible 2
WINDOW 3 -176 32 Invisible 0
WINDOW 123 -176 48 Invisible 0
SYMATTR InstName U4
SYMBOL res 1136 560 M90
WINDOW 0 4 56 VBottom 2
WINDOW 3 27 56 Invisible 2
SYMATTR InstName RL
SYMBOL res 912 672 M90
WINDOW 0 4 56 VBottom 2
WINDOW 3 27 56 Invisible 2
SYMATTR InstName R1
SYMBOL voltage 1072 768 M0
WINDOW 3 24 96 Invisible 2
SYMATTR InstName Vi
TEXT 144 144 Left 2 ;a
TEXT 840 144 Left 2 ;b
TEXT 144 576 Left 2 ;c
TEXT 840 576 Left 2 ;d
RECTANGLE Normal 1440 944 80 80 2
