Version 4
SHEET 1 7076 6404
WIRE 304 80 80 80
WIRE 592 112 416 112
WIRE 80 128 80 80
WIRE 304 144 240 144
WIRE 240 224 240 144
WIRE 368 224 240 224
WIRE 592 224 592 112
WIRE 592 224 448 224
WIRE 80 256 80 208
WIRE 240 256 240 224
WIRE 592 256 592 224
WIRE 240 384 240 336
WIRE 592 384 592 336
FLAG 80 256 0
FLAG 592 384 0
FLAG 240 384 0
SYMBOL TCLib\\OA_Ideal 496 160 M180
WINDOW 3 -176 32 Invisible 0
WINDOW 123 -176 48 Invisible 0
WINDOW 0 -113 80 Invisible 2
SYMATTR InstName U8
SYMBOL voltage 80 112 M0
WINDOW 3 24 96 Invisible 2
SYMATTR InstName Vi
SYMBOL res 224 240 R0
WINDOW 3 36 68 Left 2
SYMATTR Value 4.5k
SYMATTR InstName R2
SYMBOL res 576 240 R0
WINDOW 3 36 68 Left 2
SYMATTR Value 1k
SYMATTR InstName RL
SYMBOL res 464 208 R90
WINDOW 0 2 56 VBottom 2
WINDOW 3 27 56 VTop 2
SYMATTR InstName R1
SYMATTR Value 4.5k
TEXT 80 32 Left 2 ;a
RECTANGLE Normal 688 464 0 0 2
