Version 4
SHEET 1 7076 6404
WIRE 336 800 128 800
WIRE 576 832 448 832
WIRE 128 848 128 800
WIRE 336 864 272 864
WIRE 272 960 272 864
WIRE 384 960 272 960
WIRE 576 960 576 832
WIRE 576 960 464 960
WIRE 128 976 128 928
WIRE 272 1008 272 960
WIRE 576 1008 576 960
WIRE 272 1136 272 1088
WIRE 576 1136 576 1088
FLAG 128 976 0
FLAG 576 1136 0
FLAG 272 1136 0
SYMBOL TCLib\\OA_Ideal 528 880 M180
WINDOW 3 -176 32 Invisible 0
WINDOW 123 -176 48 Invisible 0
WINDOW 0 -113 80 Invisible 2
SYMATTR InstName U1
SYMBOL voltage 128 832 M0
WINDOW 3 24 96 Invisible 2
SYMATTR InstName Vg
SYMBOL res 256 992 R0
WINDOW 3 36 68 Left 2
SYMATTR Value 4.5k
SYMATTR InstName R1
SYMBOL res 560 992 R0
WINDOW 3 36 68 Left 2
SYMATTR Value 1k
SYMATTR InstName RL
SYMBOL res 368 944 M90
WINDOW 0 2 56 VBottom 2
WINDOW 3 27 56 VTop 2
SYMATTR InstName R2
SYMATTR Value 4.5k
SYMBOL TCLib\\Special\\arrow_curve 368 944 M90
SYMATTR Value VL
SYMATTR InstName X1
RECTANGLE Normal 640 1168 64 752 2
