Version 4
SHEET 1 7076 6404
WIRE 304 96 80 96
WIRE 592 128 416 128
WIRE 80 144 80 96
WIRE 304 160 240 160
WIRE 240 240 240 160
WIRE 368 240 240 240
WIRE 592 240 592 128
WIRE 592 240 448 240
WIRE 80 272 80 224
WIRE 240 272 240 240
WIRE 592 272 592 240
WIRE 240 400 240 352
WIRE 592 400 592 352
FLAG 80 272 0
FLAG 592 400 0
FLAG 240 400 0
SYMBOL TCLib\\OA_Ideal 496 176 M180
WINDOW 3 -176 32 Invisible 0
WINDOW 123 -176 48 Invisible 0
WINDOW 0 -113 80 Invisible 2
SYMATTR InstName U7
SYMBOL voltage 80 128 M0
WINDOW 3 24 96 Invisible 2
SYMATTR InstName Vi
SYMBOL res 224 256 R0
WINDOW 3 36 68 Left 2
SYMATTR Value 1k
SYMATTR InstName RL
SYMBOL res 576 256 R0
WINDOW 3 36 68 Left 2
SYMATTR Value 4.5k
SYMATTR InstName R2
SYMBOL res 464 224 R90
WINDOW 0 2 56 VBottom 2
WINDOW 3 27 56 VTop 2
SYMATTR InstName R1
SYMATTR Value 4.5k
TEXT 80 48 Left 2 ;b
RECTANGLE Normal 704 464 0 0 2
