Version 4
SHEET 1 880 708
WIRE 160 -48 96 -48
WIRE 320 -48 240 -48
WIRE -64 48 -144 48
WIRE 96 48 96 -48
WIRE 96 48 16 48
WIRE 144 48 96 48
WIRE 320 80 320 -48
WIRE 320 80 256 80
WIRE 384 80 320 80
WIRE 144 112 96 112
WIRE 96 176 96 112
WIRE 384 176 384 80
WIRE -144 320 -144 48
WIRE 144 320 -144 320
WIRE 320 352 256 352
WIRE 384 352 384 256
WIRE 384 352 320 352
WIRE 144 384 96 384
WIRE -144 432 -144 320
WIRE 96 480 96 384
WIRE 176 480 96 480
WIRE 320 480 320 352
WIRE 320 480 256 480
WIRE 96 528 96 480
WIRE -144 656 -144 512
WIRE 96 656 96 608
FLAG 96 176 0
FLAG 96 656 0
FLAG -144 656 0
SYMBOL TCLib\\OA_Ideal 336 32 R0
WINDOW 0 -135 95 Left 2
WINDOW 3 145 557 Invisible 0
WINDOW 123 148 599 Invisible 0
SYMATTR InstName U1
SYMBOL TCLib\\OA_Ideal 336 400 M180
WINDOW 0 -133 95 Left 2
WINDOW 3 152 -256 Invisible 0
WINDOW 123 150 -208 Invisible 0
SYMATTR InstName U2
SYMBOL voltage -144 416 R0
WINDOW 3 610 101 Invisible 2
SYMATTR InstName Vi
SYMBOL TCLib\\Special\\arrow_curve 384 272 M180
SYMATTR Value Vo
SYMATTR InstName X1
SYMBOL res -80 64 R270
WINDOW 0 27 56 VTop 2
WINDOW 3 3 56 Invisible 2
SYMATTR InstName R
SYMBOL res 256 -64 R90
WINDOW 0 3 56 VBottom 2
WINDOW 3 27 56 Invisible 2
SYMATTR InstName kR
SYMBOL res 400 272 R180
WINDOW 0 36 76 Left 2
WINDOW 3 36 40 Invisible 2
SYMATTR InstName RL
SYMBOL res 272 464 R90
WINDOW 0 3 56 Invisible 2
WINDOW 3 27 56 VTop 2
SYMATTR InstName R1
SYMATTR Value (k-1)R
SYMBOL res 112 512 M0
WINDOW 3 36 76 Invisible 2
SYMATTR InstName R
RECTANGLE Normal 496 -112 -208 704 2
