Version 4
SHEET 1 900 680
WIRE 624 -112 -816 -112
WIRE -816 32 -816 -112
WIRE -752 32 -816 32
WIRE -576 64 -640 64
WIRE -48 64 -576 64
WIRE -752 96 -816 96
WIRE 128 96 64 96
WIRE 272 96 208 96
WIRE 400 96 272 96
WIRE -48 160 -48 64
WIRE 64 160 64 96
WIRE 64 160 -48 160
WIRE 272 160 272 96
WIRE 400 160 400 96
WIRE 448 160 400 160
WIRE -816 176 -816 96
WIRE 624 192 624 -112
WIRE 624 192 560 192
WIRE -48 224 -48 160
WIRE 448 224 400 224
WIRE 272 288 272 240
WIRE -816 336 -816 256
WIRE -576 336 -576 64
WIRE -528 336 -576 336
WIRE -400 336 -448 336
WIRE -320 336 -400 336
WIRE -160 336 -240 336
WIRE -48 368 -48 304
WIRE 64 368 -48 368
WIRE 64 432 64 368
WIRE 128 432 64 432
WIRE 400 432 400 224
WIRE 400 432 208 432
WIRE 480 432 400 432
WIRE 624 432 624 192
WIRE 624 432 560 432
WIRE -400 448 -400 336
WIRE -336 448 -400 448
WIRE -160 480 -160 336
WIRE -160 480 -224 480
WIRE -48 480 -48 368
WIRE -48 480 -160 480
WIRE -336 512 -400 512
WIRE -400 560 -400 512
FLAG -400 560 0
FLAG -816 336 0
FLAG 272 288 0
SYMBOL TCLib\\OA_Ideal 640 240 M180
WINDOW 3 -176 32 Invisible 0
WINDOW 123 -176 48 Invisible 0
SYMATTR InstName U3
SYMBOL TCLib\\OA_Ideal -144 432 R0
WINDOW 3 -176 32 Invisible 0
WINDOW 123 -176 48 Invisible 0
SYMATTR InstName U2
SYMBOL TCLib\\OA_Ideal -560 16 R0
WINDOW 3 -176 32 Invisible 0
WINDOW 123 -176 48 Invisible 0
SYMATTR InstName U1
SYMBOL res -544 352 R270
WINDOW 0 27 56 VTop 2
WINDOW 3 3 56 VBottom 2
SYMATTR InstName R5
SYMATTR Value 1k
SYMBOL res -336 352 R270
WINDOW 0 27 56 VTop 2
WINDOW 3 3 56 VBottom 2
SYMATTR InstName R6
SYMATTR Value 1k
SYMBOL res 112 448 R270
WINDOW 0 27 56 VTop 2
WINDOW 3 3 56 VBottom 2
SYMATTR InstName R3
SYMATTR Value 100k
SYMBOL res 464 448 R270
WINDOW 0 27 56 VTop 2
WINDOW 3 3 56 VBottom 2
SYMATTR InstName R4
SYMATTR Value 100k
SYMBOL res 112 112 R270
WINDOW 0 27 56 VTop 2
WINDOW 3 3 56 VBottom 2
SYMATTR InstName R1
SYMATTR Value 100k
SYMBOL res 256 144 R0
SYMATTR InstName R2
SYMATTR Value 100k
SYMBOL voltage -816 160 R0
WINDOW 3 24 96 Invisible 2
SYMATTR InstName Vi
SYMBOL res -32 208 M0
SYMATTR InstName RL
SYMATTR Value 10k
SYMBOL TCLib\\Special\\arrow_curve -48 208 R0
SYMATTR Value Vo
SYMATTR InstName X1
RECTANGLE Normal 656 592 -880 -144 2
