Version 4
SHEET 1 1104 680
WIRE -160 80 -224 80
WIRE 0 80 -80 80
WIRE -544 208 -624 208
WIRE -368 208 -464 208
WIRE -224 208 -224 80
WIRE -224 208 -368 208
WIRE -176 208 -224 208
WIRE 0 240 0 80
WIRE 0 240 -64 240
WIRE 32 240 0 240
WIRE -624 272 -624 208
WIRE -368 272 -368 208
WIRE -176 272 -224 272
WIRE -624 400 -624 352
WIRE -368 400 -368 352
WIRE -224 400 -224 272
FLAG -224 400 0
FLAG -624 400 0
FLAG 32 240 Vo
FLAG -368 400 0
SYMBOL res -176 64 M90
WINDOW 0 3 56 VBottom 2
WINDOW 3 27 56 VTop 2
SYMATTR InstName R3
SYMATTR Value 3k
SYMBOL res -560 192 M90
WINDOW 0 3 56 VBottom 2
WINDOW 3 27 56 VTop 2
SYMATTR InstName R1
SYMATTR Value 1k
SYMBOL voltage -624 256 R0
WINDOW 3 24 44 Left 2
WINDOW 123 0 0 Left 0
WINDOW 39 0 0 Left 0
SYMATTR Value ""
SYMATTR InstName Vi
SYMBOL res -384 256 R0
SYMATTR InstName R2
SYMATTR Value 600
SYMBOL TCLib\\OA_Ideal 16 192 R0
WINDOW 0 48 42 Invisible 2
WINDOW 123 -179 47 Left 0
SYMATTR InstName .
SYMATTR Value2 ""
SYMATTR Value ""
RECTANGLE Normal 80 432 -672 32 2
