Version 4
SHEET 1 880 680
WIRE 560 -80 480 -80
WIRE 704 -80 624 -80
WIRE 336 16 256 16
WIRE 480 16 480 -80
WIRE 480 16 416 16
WIRE 544 16 480 16
WIRE 704 48 704 -80
WIRE 704 48 656 48
WIRE 736 48 704 48
WIRE 256 64 256 16
WIRE 544 80 480 80
WIRE 256 192 256 144
WIRE 480 192 480 80
FLAG 480 192 0
FLAG 256 192 0
FLAG 736 48 Vo
SYMBOL voltage 256 48 R0
SYMATTR InstName Vi
SYMATTR Value ""
SYMBOL res 320 0 M90
WINDOW 0 3 56 VBottom 2
WINDOW 3 27 56 VTop 2
SYMATTR InstName R
SYMATTR Value ""
SYMBOL TCLib\\OA_Ideal 736 0 R0
WINDOW 0 -259 7 Left 2
SYMATTR InstName .
SYMATTR Value ""
SYMATTR Value2 ""
SYMBOL cap 560 -96 M90
WINDOW 0 0 32 VBottom 2
WINDOW 3 32 32 VTop 2
SYMATTR InstName C
SYMATTR Value ""
RECTANGLE Normal 784 224 208 -128 2
