Version 4
SHEET 1 880 680
WIRE 224 32 160 32
WIRE 384 32 304 32
WIRE 464 32 384 32
WIRE 624 32 544 32
WIRE 384 128 384 32
WIRE 432 128 384 128
WIRE 160 160 160 32
WIRE 160 160 48 160
WIRE 624 160 624 32
WIRE 624 160 544 160
WIRE 656 160 624 160
WIRE 432 192 384 192
WIRE 48 208 48 160
WIRE 160 288 160 160
WIRE 224 288 160 288
WIRE 384 288 384 192
WIRE 384 288 304 288
WIRE 464 288 384 288
WIRE 624 288 544 288
WIRE 48 336 48 288
WIRE 624 336 624 288
FLAG 624 336 0
FLAG 48 336 0
FLAG 656 160 Vo
SYMBOL current 48 288 R180
WINDOW 0 24 80 Left 2
WINDOW 3 24 0 Left 2
SYMATTR InstName Is
SYMATTR Value 1mA
SYMBOL TCLib\\OA_Ideal 624 112 R0
WINDOW 0 -278 167 Invisible 2
SYMATTR InstName .
SYMATTR Value ""
SYMATTR Value2 ""
SYMBOL res 208 16 M90
WINDOW 0 3 56 VBottom 2
WINDOW 3 27 56 VTop 2
SYMATTR InstName R1
SYMATTR Value 3k
SYMBOL res 448 16 M90
WINDOW 0 3 56 VBottom 2
WINDOW 3 27 56 VTop 2
SYMATTR InstName R2
SYMATTR Value 4k
SYMBOL res 208 272 M90
WINDOW 0 3 56 VBottom 2
WINDOW 3 27 56 VTop 2
SYMATTR InstName R3
SYMATTR Value 2k
SYMBOL res 448 304 R270
WINDOW 0 27 56 VTop 2
WINDOW 3 3 56 VBottom 2
SYMATTR InstName R4
SYMATTR Value 1k
RECTANGLE Normal 704 368 -48 -16 2
