Version 4
SHEET 1 880 680
WIRE -96 32 -256 32
WIRE -16 32 -96 32
WIRE 144 32 64 32
WIRE 224 32 144 32
WIRE 384 32 304 32
WIRE 144 144 144 32
WIRE 208 144 144 144
WIRE -256 160 -256 32
WIRE -96 160 -96 32
WIRE 384 176 384 32
WIRE 384 176 320 176
WIRE 432 176 384 176
WIRE 208 208 -48 208
WIRE -256 304 -256 240
WIRE -96 304 -96 240
FLAG -96 304 0
FLAG -256 304 0
FLAG 432 176 Vo
SYMBOL TCLib\\OA_Ideal 400 128 R0
WINDOW 0 -464 377 Invisible 2
WINDOW 3 -466 351 Invisible 0
WINDOW 123 -465 328 Invisible 0
SYMATTR InstName U1
SYMBOL TCLib\\pot -112 144 R0
WINDOW 0 38 19 Left 0
WINDOW 3 38 21 Invisible 1
SYMATTR InstName R3
SYMATTR Value ""
SYMATTR Value2 cur=k
SYMBOL res -32 48 R270
WINDOW 0 27 56 VTop 2
WINDOW 3 3 56 VBottom 2
SYMATTR InstName R1
SYMATTR Value ""
SYMBOL res 208 48 R270
WINDOW 0 27 56 VTop 2
WINDOW 3 3 56 VBottom 2
SYMATTR InstName R2
SYMATTR Value ""
SYMBOL voltage -256 144 R0
WINDOW 3 161 355 Invisible 2
SYMATTR InstName Vi
RECTANGLE Normal 496 336 -304 -16 2
