Version 4
SHEET 1 996 680
WIRE 640 0 480 0
WIRE 864 0 720 0
WIRE 336 128 256 128
WIRE 480 128 480 0
WIRE 480 128 416 128
WIRE 544 128 480 128
WIRE 704 160 656 160
WIRE 864 160 864 0
WIRE 864 160 784 160
WIRE 256 192 256 128
WIRE 544 192 480 192
WIRE 864 208 864 160
WIRE 256 352 256 272
WIRE 480 352 480 192
WIRE 864 352 864 288
FLAG 864 352 0
FLAG 256 352 0
FLAG 480 352 0
SYMBOL voltage 256 176 R0
SYMATTR InstName Vi
SYMATTR Value ""
SYMBOL res 320 112 M90
WINDOW 0 0 58 VBottom 2
WINDOW 3 27 56 VTop 2
SYMATTR InstName R1
SYMATTR Value ""
SYMBOL TCLib\\OA_Ideal 736 112 R0
WINDOW 0 -291 6 Invisible 2
WINDOW 123 -177 54 Left 0
SYMATTR InstName .
SYMATTR Value2 ""
SYMATTR Value ""
SYMBOL res 624 -16 M90
WINDOW 0 3 56 VBottom 2
WINDOW 3 27 56 VTop 2
SYMATTR InstName R2
SYMATTR Value ""
SYMBOL res 688 144 M90
WINDOW 0 3 56 VBottom 2
WINDOW 3 27 56 VTop 2
SYMATTR InstName RL
SYMATTR Value ""
SYMBOL res 848 192 R0
SYMATTR InstName R4
SYMBOL TCLib\\Special\\arrow_curve 688 160 M90
SYMATTR Value VL
SYMATTR InstName X2
RECTANGLE Normal 928 384 208 -48 2
