Version 4
SHEET 1 880 824
WIRE -352 48 -592 48
WIRE 144 48 64 48
WIRE 304 48 224 48
WIRE -592 144 -592 48
WIRE -592 144 -656 144
WIRE -528 144 -592 144
WIRE -64 144 -112 144
WIRE 64 144 64 48
WIRE 64 144 16 144
WIRE 128 144 64 144
WIRE -352 176 -352 48
WIRE -352 176 -416 176
WIRE -320 176 -352 176
WIRE 304 176 304 48
WIRE 304 176 240 176
WIRE 336 176 304 176
WIRE -528 208 -592 208
WIRE 128 208 64 208
WIRE -592 256 -592 208
WIRE 64 256 64 208
FLAG 64 256 0
FLAG -112 144 Vi
FLAG 336 176 Vo
FLAG -592 256 0
FLAG -656 144 Vi
FLAG -320 176 Vo
SYMBOL res 128 64 R270
WINDOW 0 27 56 VTop 2
WINDOW 3 3 56 VBottom 2
SYMATTR InstName R1
SYMATTR Value 1k
SYMBOL res -80 160 R270
WINDOW 0 27 56 VTop 2
WINDOW 3 3 56 VBottom 2
SYMATTR InstName R2
SYMATTR Value 1k
SYMBOL TCLib\\OA_Ideal -336 128 R0
WINDOW 3 -204 284 Invisible 0
WINDOW 123 -195 298 Invisible 0
SYMATTR InstName TL082
SYMBOL TCLib\\OA_Ideal 320 128 R0
WINDOW 3 -185 669 Invisible 0
WINDOW 123 -190 686 Invisible 0
SYMATTR InstName TL082
RECTANGLE Normal 384 288 -704 -16 2
