Version 4
SHEET 1 1332 772
WIRE -16 -32 -224 -32
WIRE 560 0 96 0
WIRE 592 0 560 0
WIRE -224 16 -224 -32
WIRE -16 32 -80 32
WIRE 560 64 560 0
WIRE -224 144 -224 96
WIRE -80 208 -80 32
WIRE 176 208 -80 208
WIRE 560 208 560 144
WIRE 560 208 256 208
WIRE -80 352 -80 208
WIRE 32 352 -80 352
WIRE 224 352 112 352
WIRE 336 352 224 352
WIRE 560 352 560 208
WIRE 560 352 416 352
WIRE -80 416 -80 352
WIRE 560 480 560 352
WIRE 560 480 464 480
WIRE 224 512 224 352
WIRE 352 512 224 512
WIRE 560 544 464 544
WIRE -80 560 -80 496
WIRE 560 592 560 544
WIRE 560 720 560 672
FLAG -80 560 0
FLAG 592 0 Vo
FLAG -224 144 0
FLAG 560 720 0
SYMBOL TCLib\\OA_Ideal 176 -48 R0
WINDOW 123 -176 48 Invisible 0
WINDOW 3 -176 32 Invisible 0
SYMATTR Value2 GBWP=1Meg
SYMATTR InstName U1
SYMBOL res 272 192 R90
WINDOW 0 0 56 VBottom 2
WINDOW 3 32 56 Invisible 2
SYMATTR InstName R4
SYMATTR Value 20k
SYMBOL res 576 160 R180
WINDOW 0 36 76 Left 2
WINDOW 3 36 40 Invisible 2
SYMATTR InstName R5
SYMATTR Value 1k
SYMBOL res 16 368 R270
WINDOW 0 32 56 VTop 2
WINDOW 3 0 56 Invisible 2
SYMATTR InstName R2
SYMATTR Value 1k
SYMBOL res 320 368 R270
WINDOW 0 32 56 VTop 2
WINDOW 3 0 56 Invisible 2
SYMATTR InstName R3
SYMATTR Value 1k
SYMBOL res -96 400 R0
WINDOW 3 36 76 Invisible 2
SYMATTR Value 1k
SYMATTR InstName R1
SYMBOL TCLib\\OA_Ideal 272 464 M0
WINDOW 123 -176 48 Invisible 0
WINDOW 3 -176 32 Invisible 0
SYMATTR Value2 GBWP=1Meg
SYMATTR InstName U2
SYMBOL voltage -224 0 R0
SYMATTR InstName V1
SYMATTR Value ""
SYMBOL voltage 560 576 R0
SYMATTR InstName V2
SYMATTR Value ""
RECTANGLE Normal 656 752 -272 -64 2
