Version 4
SHEET 1 880 1076
WIRE -1888 272 -2000 272
WIRE -1680 272 -1808 272
WIRE -1552 272 -1680 272
WIRE -1344 272 -1472 272
WIRE -2000 336 -2000 272
WIRE -1680 400 -1680 272
WIRE -1600 400 -1680 400
WIRE -1344 432 -1344 272
WIRE -1344 432 -1488 432
WIRE -1312 432 -1344 432
WIRE -1888 464 -2000 464
WIRE -1680 464 -1808 464
WIRE -1600 464 -1680 464
WIRE -2000 544 -2000 464
WIRE -1680 656 -1680 464
WIRE -1552 656 -1680 656
WIRE -1344 656 -1472 656
WIRE -2000 672 -2000 624
WIRE -1680 784 -1680 656
WIRE -1568 784 -1680 784
WIRE -1344 816 -1344 656
WIRE -1344 816 -1456 816
WIRE -1568 848 -1680 848
WIRE -1680 976 -1680 848
WIRE -1552 976 -1680 976
WIRE -1344 976 -1344 816
WIRE -1344 976 -1472 976
FLAG -1312 432 Vo
FLAG -2000 672 0
FLAG -2000 336 0
SYMBOL voltage -2000 528 R0
WINDOW 3 16 97 Left 2
WINDOW 123 0 0 Left 0
WINDOW 39 0 0 Left 0
SYMATTR Value 10mV
SYMATTR InstName Vi
SYMBOL res -1904 448 M90
WINDOW 0 3 56 VBottom 2
WINDOW 3 27 56 VTop 2
SYMATTR InstName Rg
SYMATTR Value 5k
SYMBOL TCLib\\OA_Ideal -1408 384 R0
SYMATTR InstName U1
SYMATTR Value ""
SYMATTR Value2 ""
SYMBOL res -1904 256 M90
WINDOW 0 3 56 VBottom 2
WINDOW 3 27 56 VTop 2
SYMATTR InstName Ra
SYMATTR Value 1k
SYMBOL res -1568 256 M90
WINDOW 0 3 56 VBottom 2
WINDOW 3 27 56 VTop 2
SYMATTR InstName Rb
SYMATTR Value 99k
SYMBOL res -1456 640 R90
WINDOW 0 3 56 VBottom 2
WINDOW 3 27 56 VTop 2
SYMATTR InstName R1
SYMATTR Value ""
SYMBOL TCLib\\OA_Ideal -1376 864 M180
SYMATTR InstName U2
SYMATTR Value ""
SYMATTR Value2 ""
SYMBOL res -1456 960 R90
WINDOW 0 3 56 VBottom 2
WINDOW 3 27 56 VTop 2
SYMATTR InstName R2
SYMATTR Value ""
RECTANGLE Normal -1232 1008 -2048 224 2
