Version 4
SHEET 1 984 680
WIRE 656 -16 448 -16
WIRE 928 -16 736 -16
WIRE 272 128 144 128
WIRE 448 128 448 -16
WIRE 448 128 352 128
WIRE 544 128 448 128
WIRE 752 160 656 160
WIRE 928 160 928 -16
WIRE 928 160 832 160
WIRE 144 192 144 128
WIRE 544 192 448 192
WIRE 928 208 928 160
WIRE 144 352 144 272
WIRE 448 352 448 192
WIRE 928 352 928 288
FLAG 928 352 0
FLAG 144 352 0
FLAG 448 352 0
SYMBOL voltage 144 176 R0
SYMATTR InstName Vi
SYMATTR Value ""
SYMBOL res 256 112 M90
WINDOW 0 0 58 VBottom 2
WINDOW 3 27 56 VTop 2
SYMATTR InstName R1
SYMATTR Value ""
SYMBOL TCLib\\OA_Ideal 736 112 R0
WINDOW 0 -291 6 Left 2
WINDOW 123 -177 54 Left 0
SYMATTR InstName .
SYMATTR Value ""
SYMATTR Value2 ""
SYMBOL res 640 -32 M90
WINDOW 0 3 56 VBottom 2
WINDOW 3 27 56 VTop 2
SYMATTR InstName R2
SYMATTR Value ""
SYMBOL res 736 144 M90
WINDOW 0 3 56 VBottom 2
WINDOW 3 27 56 VTop 2
SYMATTR InstName RL
SYMATTR Value ""
SYMBOL res 912 192 R0
SYMATTR InstName R4
SYMBOL TCLib\\Special\\arrow_curve 736 144 M90
WINDOW 3 78 71 VLeft 2
SYMATTR Value VL
SYMATTR InstName X1
