Version 4
SHEET 1 980 876
WIRE 192 16 48 16
WIRE 416 16 272 16
WIRE -144 144 -272 144
WIRE 48 144 48 16
WIRE 48 144 -64 144
WIRE 176 144 48 144
WIRE 416 176 416 16
WIRE 416 176 288 176
WIRE 464 176 416 176
WIRE 176 208 48 208
WIRE 48 240 48 208
WIRE -272 352 -272 144
WIRE 48 352 48 320
WIRE -272 496 -272 432
WIRE 48 496 48 432
FLAG -272 496 0
FLAG 48 496 0
FLAG 464 176 Vo
SYMBOL res -160 128 M90
WINDOW 0 0 56 VBottom 2
WINDOW 3 27 56 VTop 2
SYMATTR InstName R1
SYMATTR Value 25k
SYMBOL res 64 336 R180
WINDOW 0 36 76 Left 2
WINDOW 3 36 40 Left 2
SYMATTR InstName R3
SYMATTR Value 1k
SYMBOL res 176 0 M90
WINDOW 0 3 56 VBottom 2
WINDOW 3 27 56 VTop 2
SYMATTR InstName R2
SYMATTR Value 50k
SYMBOL voltage -272 336 R0
SYMATTR InstName V1
SYMATTR Value 1V
SYMBOL voltage 48 336 R0
SYMATTR InstName V2
SYMATTR Value 2V
SYMBOL TCLib\\OA_Ideal 368 128 R0
WINDOW 0 -324 11 Left 2
SYMATTR InstName .
SYMATTR Value ""
SYMATTR Value2 ""
RECTANGLE Normal 512 528 -320 -32 2
