Version 4
SHEET 1 880 708
WIRE -336 -112 -560 -112
WIRE -96 -80 -224 -80
WIRE 0 -80 -96 -80
WIRE -560 -64 -560 -112
WIRE -336 -48 -464 -48
WIRE -96 -48 -96 -80
WIRE -560 64 -560 16
WIRE -464 64 -464 -48
WIRE -96 64 -96 32
WIRE -96 64 -464 64
WIRE -96 160 -96 64
WIRE 128 208 -48 208
WIRE 400 208 208 208
WIRE -96 336 -96 240
WIRE -96 336 -464 336
WIRE -96 368 -96 336
WIRE -464 448 -464 336
WIRE -336 448 -464 448
WIRE -96 480 -96 448
WIRE -96 480 -224 480
WIRE 112 480 -96 480
WIRE -336 512 -560 512
WIRE 400 512 400 208
WIRE 400 512 224 512
WIRE 112 544 64 544
WIRE -560 560 -560 512
WIRE 64 592 64 544
WIRE -560 688 -560 640
FLAG 64 592 0
FLAG -560 688 0
FLAG -560 64 0
FLAG 0 -80 Vo
SYMBOL TCLib\\OA_Ideal -144 -32 M180
SYMATTR InstName U2
SYMATTR Value ""
SYMATTR Value2 ""
SYMBOL res -112 -64 R0
SYMATTR InstName R2
SYMATTR Value 20k
SYMBOL TCLib\\pot -112 144 R0
WINDOW 0 26 15 Left 0
WINDOW 3 38 39 Left 1
SYMATTR InstName U3
SYMATTR Value2 ""
SYMBOL TCLib\\OA_Ideal -144 432 R0
SYMATTR InstName U1
SYMATTR Value ""
SYMATTR Value2 ""
SYMBOL res -80 352 M0
SYMATTR InstName R1
SYMATTR Value 20k
SYMBOL res 224 192 R90
WINDOW 0 3 56 VBottom 2
WINDOW 3 27 56 VTop 2
SYMATTR InstName R3
SYMATTR Value 30k
SYMBOL TCLib\\OA_Ideal 304 560 M180
SYMATTR InstName U4
SYMATTR Value ""
SYMATTR Value2 ""
SYMBOL voltage -560 544 R0
SYMATTR InstName V1
SYMATTR Value ""
SYMBOL voltage -560 -80 R0
SYMATTR InstName V2
SYMATTR Value ""
