Version 4
SHEET 1 880 680
WIRE 256 -288 80 -288
WIRE -32 -256 -112 -256
WIRE 192 -224 80 -224
WIRE 256 -224 256 -288
WIRE -112 -80 -112 -256
WIRE -112 -80 -144 -80
WIRE 0 -80 -112 -80
WIRE 192 -80 192 -224
WIRE 192 -80 80 -80
WIRE 320 -80 192 -80
WIRE 496 -80 400 -80
WIRE -112 32 -112 -80
WIRE 304 160 192 160
WIRE 496 160 496 -80
WIRE 496 160 384 160
WIRE 528 160 496 160
WIRE -112 240 -112 112
WIRE -112 240 -256 240
WIRE 0 240 -112 240
WIRE 192 240 192 160
WIRE 192 240 80 240
WIRE 256 240 192 240
WIRE 496 272 496 160
WIRE 496 272 368 272
WIRE 256 304 192 304
WIRE -256 320 -256 240
WIRE -192 320 -192 272
WIRE -256 464 -256 400
WIRE 192 464 192 304
FLAG -256 464 0
FLAG 192 464 0
FLAG 256 -224 0
FLAG 528 160 Vx
FLAG -144 -80 Vy
SYMBOL voltage -256 304 R0
SYMATTR InstName Vi
SYMATTR Value ""
SYMBOL TCLib\\OA_Ideal 448 224 R0
SYMATTR InstName U1
SYMATTR Value ""
SYMATTR Value2 ""
SYMBOL res 288 144 M90
WINDOW 0 3 56 VBottom 2
WINDOW 3 27 56 VTop 2
SYMATTR InstName R2
SYMATTR Value ""
SYMBOL res -16 224 M90
WINDOW 0 3 56 VBottom 2
WINDOW 3 27 56 VTop 2
SYMATTR InstName R1
SYMATTR Value ""
SYMBOL res 416 -96 R90
WINDOW 0 3 56 VBottom 2
WINDOW 3 27 56 VTop 2
SYMATTR InstName R2
SYMATTR Value ""
SYMBOL res -128 16 R0
SYMATTR InstName R3
SYMATTR Value ""
SYMBOL res 96 -96 R90
WINDOW 0 3 56 VBottom 2
WINDOW 3 27 56 VTop 2
SYMATTR InstName 2R1
SYMATTR Value ""
SYMBOL TCLib\\OA_Ideal -112 -208 R180
SYMATTR InstName U2
SYMATTR Value ""
SYMATTR Value2 ""
SYMBOL TCLib\\Special\\arrow -192 272 R0
SYMATTR Value Zi
SYMATTR InstName X1
