Version 4
SHEET 1 8748 12036
WIRE 2912 2128 2912 2096
WIRE 3296 2128 3296 2032
WIRE 2864 2144 2704 2144
WIRE 3104 2176 2976 2176
WIRE 3232 2176 3104 2176
WIRE 2704 2192 2704 2144
WIRE 2864 2208 2784 2208
WIRE 2912 2256 2912 2224
WIRE 3104 2272 3104 2176
WIRE 3296 2272 3296 2224
WIRE 2784 2400 2784 2208
WIRE 2880 2400 2784 2400
WIRE 3088 2400 2960 2400
WIRE 3296 2400 3296 2352
WIRE 3296 2400 3120 2400
WIRE 3472 2400 3296 2400
WIRE 3296 2448 3296 2400
WIRE 3104 2464 3104 2336
WIRE 2784 2496 2784 2400
WIRE 3472 2512 3472 2400
WIRE 3296 2560 3296 2528
WIRE 3104 2608 3104 2528
WIRE 3232 2608 3104 2608
WIRE 2784 2656 2784 2576
WIRE 3104 2688 3104 2608
WIRE 3472 2688 3472 2592
WIRE 2784 2832 2784 2736
WIRE 3104 2832 3104 2768
WIRE 3296 2832 3296 2656
FLAG 3472 2688 0
FLAG 2784 2832 0
FLAG 2704 2192 0
FLAG 3296 2032 15V
FLAG 3104 2832 -15V
FLAG 3296 2832 -15V
FLAG 2912 2096 -15V
FLAG 2912 2256 15V
SYMBOL diode 3088 2272 R0
WINDOW 3 24 64 Invisible 2
SYMATTR InstName D1
SYMBOL diode 3088 2464 R0
WINDOW 3 24 64 Invisible 2
SYMATTR InstName D2
SYMBOL npn 3232 2128 R0
WINDOW 3 56 68 Invisible 2
SYMATTR InstName Q1
SYMBOL res 3456 2496 R0
SYMATTR InstName RL
SYMATTR Value 10
SYMBOL res 3280 2256 R0
SYMATTR InstName Ra
SYMATTR Value 1
SYMBOL res 3280 2432 R0
SYMATTR InstName Rb
SYMATTR Value 1
SYMBOL res 3088 2672 R0
SYMATTR InstName Rx
SYMATTR Value 1000
SYMBOL res 2976 2384 R90
WINDOW 0 2 56 VBottom 2
WINDOW 3 27 56 VTop 2
SYMATTR InstName R1
SYMATTR Value 9k
SYMBOL res 2768 2480 R0
SYMATTR InstName Rg
SYMATTR Value 1k
SYMBOL Misc\\signal 2784 2640 R0
WINDOW 3 24 104 Invisible 2
SYMATTR InstName Vi
SYMBOL TCLib\\TL082 3056 2224 M180
WINDOW 3 -113 7 Invisible 2
SYMATTR InstName U1
SYMBOL TCLib\\Special\\bypass 3088 2400 R0
SYMATTR InstName U7
SYMBOL pnp 3232 2656 M180
WINDOW 3 84 68 Invisible 2
SYMATTR InstName Q2
TEXT 2824 1920 Left 2 ;Exporta solamente lo que está adentro del rectángulo
RECTANGLE Normal 3616 2880 2624 1968 2
