Version 4.1
SHEET 1 8748 12036
WIRE 2624 2256 2560 2256
WIRE 2768 2256 2704 2256
WIRE 3136 2320 3024 2320
WIRE 3152 2320 3136 2320
WIRE 2560 2384 2560 2256
WIRE 2688 2384 2560 2384
WIRE 2768 2384 2688 2384
WIRE 3136 2384 3136 2320
WIRE 2688 2544 2688 2384
WIRE 2848 2544 2688 2544
WIRE 3136 2544 3136 2464
WIRE 3136 2544 2848 2544
WIRE 2848 2576 2848 2544
FLAG 2848 2576 0
SYMBOL TCLib\\Special\\OA_Signal 2768 2320 R0
SYMATTR InstName U1
SYMBOL res 2720 2240 R90
WINDOW 0 3 56 VBottom 2
WINDOW 3 27 56 VTop 2
SYMATTR InstName R1
SYMBOL res 3120 2368 R0
SYMATTR InstName R2
RECTANGLE Normal 3216 2608 2528 2176 2
