Version 4
SHEET 1 880 680
SYMBOL res -112 192 R270
WINDOW 0 27 56 VTop 2
WINDOW 3 3 56 VBottom 2
SYMATTR InstName R1
LINE Normal 48 64 0 64 2
LINE Normal 48 80 0 80 1
