Version 4
SHEET 1 9348 6404
WIRE 5008 1056 4928 1056
WIRE 5168 1056 5088 1056
WIRE 5824 1056 5744 1056
WIRE 5984 1056 5904 1056
WIRE 4768 1168 4672 1168
WIRE 4928 1168 4928 1056
WIRE 4928 1168 4848 1168
WIRE 4992 1168 4928 1168
WIRE 5584 1168 5488 1168
WIRE 5744 1168 5744 1056
WIRE 5744 1168 5664 1168
WIRE 5808 1168 5744 1168
WIRE 5168 1200 5168 1056
WIRE 5168 1200 5104 1200
WIRE 5264 1200 5168 1200
WIRE 5984 1200 5984 1056
WIRE 5984 1200 5920 1200
WIRE 6080 1200 5984 1200
WIRE 4672 1232 4672 1168
WIRE 4992 1232 4928 1232
WIRE 5808 1232 5744 1232
WIRE 5264 1248 5264 1200
WIRE 6080 1248 6080 1200
WIRE 5744 1264 5744 1232
WIRE 4672 1376 4672 1312
WIRE 4928 1376 4928 1232
WIRE 5264 1376 5264 1328
WIRE 5488 1376 5488 1168
WIRE 5744 1376 5744 1344
WIRE 6080 1376 6080 1328
FLAG 4928 1376 0
FLAG 5264 1376 0
FLAG 4672 1376 0
FLAG 5744 1376 0
FLAG 6080 1376 0
FLAG 5488 1376 0
SYMBOL TCLib\\OA_Ideal 5184 1152 R0
WINDOW 3 -176 32 Invisible 0
WINDOW 123 -176 48 Invisible 0
SYMATTR InstName U1
SYMBOL res 4992 1040 M90
WINDOW 0 4 56 VBottom 2
WINDOW 3 55 56 VBottom 2
SYMATTR InstName R2
SYMATTR Value 60k
SYMBOL res 4752 1152 M90
WINDOW 0 4 56 VBottom 2
WINDOW 3 54 58 VBottom 2
SYMATTR InstName R1
SYMATTR Value 30k
SYMBOL voltage 4672 1216 M0
WINDOW 3 24 96 Invisible 2
SYMATTR InstName Vi
SYMBOL res 5248 1232 R0
WINDOW 3 36 76 Invisible 2
SYMATTR InstName RL
SYMBOL TCLib\\OA_Ideal 6000 1152 R0
WINDOW 3 -176 32 Invisible 0
WINDOW 123 -176 48 Invisible 0
SYMATTR InstName U1
SYMBOL res 5808 1040 M90
WINDOW 0 4 56 VBottom 2
WINDOW 3 55 56 VBottom 2
SYMATTR InstName R2
SYMATTR Value 60k
SYMBOL res 5568 1152 M90
WINDOW 0 4 56 VBottom 2
WINDOW 3 54 58 VBottom 2
SYMATTR InstName R1
SYMATTR Value 30k
SYMBOL voltage 5744 1248 M0
WINDOW 3 24 96 Invisible 2
SYMATTR InstName Vi
SYMBOL res 6064 1232 R0
WINDOW 3 36 76 Invisible 2
SYMATTR InstName RL
RECTANGLE Normal 6176 1408 4544 992 2
