Version 4
SHEET 1 9348 6404
WIRE 5280 1792 4816 1792
WIRE 5776 1792 5360 1792
WIRE 5520 1872 5440 1872
WIRE 5680 1872 5600 1872
WIRE 4816 1936 4816 1792
WIRE 5088 1936 4816 1936
WIRE 5280 1968 5200 1968
WIRE 5440 1968 5440 1872
WIRE 5440 1968 5360 1968
WIRE 5504 1968 5440 1968
WIRE 5088 2000 4960 2000
WIRE 5680 2000 5680 1872
WIRE 5680 2000 5616 2000
WIRE 5776 2000 5776 1792
WIRE 5776 2000 5680 2000
WIRE 5840 2000 5776 2000
WIRE 5856 2000 5840 2000
WIRE 4816 2016 4816 1936
WIRE 4960 2032 4960 2000
WIRE 5504 2032 5440 2032
WIRE 4816 2144 4816 2096
WIRE 4960 2144 4960 2112
WIRE 5440 2144 5440 2032
FLAG 4816 2144 0
FLAG 4960 2144 0
FLAG 5440 2144 0
FLAG 5840 2000 Vo
SYMBOL TCLib\\OA_Ideal 5696 1952 R0
WINDOW 3 -176 32 Invisible 0
WINDOW 123 -176 48 Invisible 0
SYMATTR InstName U2
SYMBOL TCLib\\OA_Ideal 5280 2016 M180
WINDOW 3 -176 32 Invisible 0
WINDOW 123 -176 48 Invisible 0
WINDOW 0 -113 16 Left 2
SYMATTR InstName U1
SYMBOL voltage 4960 2016 M0
WINDOW 3 24 96 Invisible 2
SYMATTR InstName Vi
SYMBOL res 4832 2000 M0
SYMATTR InstName R1
SYMATTR Value 100k
SYMBOL res 5376 1776 R90
WINDOW 0 2 56 VBottom 2
WINDOW 3 27 56 VTop 2
SYMATTR InstName R2
SYMATTR Value 100k
SYMBOL res 5376 1952 R90
WINDOW 0 2 56 VBottom 2
WINDOW 3 27 56 VTop 2
SYMATTR InstName R3
SYMATTR Value 100k
SYMBOL res 5616 1856 R90
WINDOW 0 2 56 VBottom 2
WINDOW 3 27 56 VTop 2
SYMATTR InstName R5
SYMATTR Value 200k
RECTANGLE Normal 5888 2176 4704 1712 2
