Version 4
SHEET 1 9348 6404
WIRE 2096 1808 1712 1808
WIRE 2496 1808 2176 1808
WIRE 1712 1952 1712 1808
WIRE 2016 1952 1712 1952
WIRE 2304 1984 2128 1984
WIRE 2016 2016 1920 2016
WIRE 2496 2016 2496 1808
WIRE 2496 2016 2416 2016
WIRE 2304 2048 2224 2048
WIRE 1712 2080 1712 1952
WIRE 1920 2080 1920 2016
WIRE 2224 2128 2224 2048
WIRE 2496 2128 2496 2016
WIRE 2496 2128 2224 2128
WIRE 1712 2224 1712 2160
WIRE 1920 2224 1920 2160
FLAG 1920 2224 0
FLAG 1712 2224 0
SYMBOL TCLib\\OA_Ideal 2496 2064 M180
WINDOW 3 -176 32 Invisible 0
WINDOW 123 -176 48 Invisible 0
SYMATTR InstName U2
SYMBOL TCLib\\OA_Ideal 2208 1936 R0
WINDOW 3 -176 32 Invisible 0
WINDOW 123 -176 48 Invisible 0
WINDOW 0 -113 16 Left 2
SYMATTR InstName U1
SYMBOL voltage 1920 2064 M0
WINDOW 3 24 96 Invisible 2
SYMATTR InstName Vi
SYMBOL res 1696 2064 R0
SYMATTR InstName R3
SYMATTR Value 10k
SYMBOL res 2192 1792 R90
WINDOW 0 2 56 VBottom 2
WINDOW 3 27 56 VTop 2
SYMATTR InstName R4
SYMATTR Value 100k
RECTANGLE Normal 2528 2256 1664 1760 2
