Version 4
SHEET 1 9348 6404
WIRE 3904 1056 3824 1056
WIRE 4064 1056 3984 1056
WIRE 3664 1168 3568 1168
WIRE 3824 1168 3824 1056
WIRE 3824 1168 3744 1168
WIRE 3888 1168 3824 1168
WIRE 4064 1200 4064 1056
WIRE 4064 1200 4000 1200
WIRE 4160 1200 4064 1200
WIRE 3888 1232 3824 1232
WIRE 4160 1248 4160 1200
WIRE 3824 1264 3824 1232
WIRE 3568 1376 3568 1168
WIRE 3824 1376 3824 1344
WIRE 4160 1376 4160 1328
FLAG 3824 1376 0
FLAG 4160 1376 0
FLAG 3568 1376 0
SYMBOL TCLib\\OA_Ideal 4080 1152 R0
WINDOW 3 -176 32 Invisible 0
WINDOW 123 -176 48 Invisible 0
SYMATTR InstName U1
SYMBOL res 3888 1040 M90
WINDOW 0 4 56 VBottom 2
WINDOW 3 55 56 VBottom 2
SYMATTR InstName R2
SYMATTR Value 60k
SYMBOL res 3648 1152 M90
WINDOW 0 4 56 VBottom 2
WINDOW 3 54 58 VBottom 2
SYMATTR InstName R1
SYMATTR Value 40k
SYMBOL voltage 3824 1248 M0
WINDOW 3 24 96 Invisible 2
SYMATTR InstName Vi
SYMBOL res 4144 1232 R0
WINDOW 3 36 76 Invisible 2
SYMATTR InstName RL
RECTANGLE Normal 4224 1424 3504 1008 2
