Version 4
SHEET 1 8748 12036
WIRE 1840 480 1840 400
WIRE 1776 528 1296 528
WIRE 1840 640 1840 576
WIRE 2000 640 1840 640
WIRE 1472 656 1424 656
WIRE 1600 656 1552 656
WIRE 1696 656 1600 656
WIRE 1296 672 1296 528
WIRE 1424 704 1424 656
WIRE 1600 704 1600 656
WIRE 1840 704 1840 640
WIRE 2000 720 2000 640
WIRE 1696 752 1696 656
WIRE 1696 752 1664 752
WIRE 1776 752 1696 752
WIRE 1296 880 1296 752
WIRE 1600 880 1600 800
WIRE 1840 880 1840 800
WIRE 2000 880 2000 800
FLAG 2000 880 0
FLAG 1296 880 0
FLAG 1424 704 0
FLAG 1840 400 15V
FLAG 1600 880 -15V
FLAG 1840 880 -15V
SYMBOL Misc\\signal 1296 656 R0
WINDOW 3 24 104 Invisible 2
SYMATTR InstName Vi
SYMBOL res 1984 704 R0
WINDOW 3 36 76 Invisible 2
SYMATTR InstName RL
SYMBOL TCLib\\Special\\arrow_curve 2016 704 R0
SYMATTR Value Vo
SYMATTR InstName X12
SYMBOL npn 1776 480 R0
WINDOW 3 56 68 Invisible 2
SYMATTR InstName Q1
SYMBOL npn 1776 704 R0
WINDOW 3 56 68 Invisible 2
SYMATTR InstName Q2
SYMBOL npn 1664 704 M0
WINDOW 3 56 68 Invisible 2
SYMATTR InstName Q3
SYMBOL res 1568 640 R90
WINDOW 0 2 56 VBottom 2
WINDOW 3 27 56 VTop 2
SYMATTR InstName R1
SYMATTR Value 5k
TEXT 1296 376 Left 2 ;b
RECTANGLE Normal 2128 944 1232 336 2
