Version 4
SHEET 1 8748 12036
WIRE 864 1312 864 1232
WIRE 800 1360 768 1360
WIRE 768 1472 768 1360
WIRE 768 1472 608 1472
WIRE 864 1472 864 1408
WIRE 1024 1472 864 1472
WIRE 864 1536 864 1472
WIRE 608 1552 608 1472
WIRE 1024 1552 1024 1472
WIRE 768 1584 768 1472
WIRE 800 1584 768 1584
WIRE 608 1712 608 1632
WIRE 864 1712 864 1632
WIRE 1024 1712 1024 1632
FLAG 1024 1712 0
FLAG 608 1712 0
FLAG 864 1232 15V
FLAG 864 1712 -15V
SYMBOL Misc\\signal 608 1536 R0
WINDOW 3 24 104 Invisible 2
SYMATTR InstName Vi
SYMBOL res 1008 1536 R0
WINDOW 3 36 76 Invisible 2
SYMATTR InstName RL
SYMBOL TCLib\\Special\\arrow_curve 1040 1536 R0
SYMATTR Value Vo
SYMATTR InstName X10
SYMBOL npn 800 1312 R0
WINDOW 3 56 68 Invisible 2
SYMATTR InstName Q1
SYMBOL pnp 800 1632 M180
SYMATTR InstName Q2
RECTANGLE Normal 1168 1776 544 1168 2
