Version 4
SHEET 1 8748 12036
WIRE 3488 576 3488 544
WIRE 3488 576 3200 576
WIRE 3200 624 3200 576
WIRE 3488 672 3488 576
WIRE 3488 672 3392 672
WIRE 3392 704 3392 672
WIRE 3200 752 3200 704
WIRE 3328 752 3200 752
WIRE 3200 784 3200 752
WIRE 3488 800 3488 672
WIRE 3392 848 3392 800
WIRE 3424 848 3392 848
WIRE 3200 880 3200 848
WIRE 2976 976 2848 976
WIRE 3184 976 3056 976
WIRE 3488 976 3488 896
WIRE 3488 976 3216 976
WIRE 3664 976 3488 976
WIRE 3200 1008 3200 944
WIRE 3488 1056 3488 976
WIRE 3488 1056 3392 1056
WIRE 3664 1072 3664 976
WIRE 3392 1088 3392 1056
WIRE 3200 1136 3200 1072
WIRE 3328 1136 3200 1136
WIRE 3488 1184 3488 1056
WIRE 3200 1200 3200 1136
WIRE 2688 1216 2608 1216
WIRE 2848 1216 2848 976
WIRE 2848 1216 2768 1216
WIRE 2960 1216 2848 1216
WIRE 3392 1232 3392 1184
WIRE 3424 1232 3392 1232
WIRE 3664 1232 3664 1152
WIRE 3136 1248 3072 1248
WIRE 2608 1280 2608 1216
WIRE 2960 1280 2848 1280
WIRE 3200 1360 3200 1296
WIRE 3344 1360 3200 1360
WIRE 2848 1408 2848 1280
WIRE 3200 1424 3200 1360
WIRE 3344 1440 3344 1360
WIRE 2848 1568 2848 1488
WIRE 3200 1584 3200 1504
WIRE 3344 1584 3344 1504
WIRE 3344 1584 3200 1584
WIRE 3488 1584 3488 1280
WIRE 3488 1584 3344 1584
WIRE 3488 1632 3488 1584
FLAG 2848 1568 0
FLAG 3664 1232 0
FLAG 2608 1280 0
FLAG 3488 544 35V
FLAG 3488 1632 -35V
SYMBOL Misc\\signal 2848 1392 R0
WINDOW 3 24 104 Invisible 2
SYMATTR InstName Vi
SYMBOL TCLib\\OA_Ideal 3152 1296 M180
WINDOW 0 -113 80 Invisible 2
WINDOW 3 -176 32 Invisible 0
WINDOW 123 -176 48 Invisible 0
SYMATTR InstName U1
SYMBOL res 2784 1232 M270
WINDOW 0 27 56 VTop 2
WINDOW 3 3 56 VBottom 2
SYMATTR InstName Rf1
SYMATTR Value 1k
SYMBOL res 3072 960 R90
WINDOW 0 2 56 VBottom 2
WINDOW 3 27 56 VTop 2
SYMATTR InstName Rf2
SYMATTR Value 49k
SYMBOL res 3184 608 R0
SYMATTR InstName R1
SYMATTR Value 365
SYMBOL diode 3184 784 R0
WINDOW 0 45 30 Left 2
WINDOW 3 24 64 Invisible 2
SYMATTR InstName D1
SYMBOL diode 3184 880 R0
WINDOW 0 41 27 Left 2
WINDOW 3 24 64 Invisible 2
SYMATTR InstName D2
SYMBOL diode 3184 1008 R0
WINDOW 0 38 32 Left 2
WINDOW 3 24 64 Invisible 2
SYMATTR InstName D3
SYMBOL npn 3328 704 R0
WINDOW 0 50 49 Left 2
WINDOW 3 56 68 Invisible 2
SYMATTR InstName Q3
SYMBOL npn 3424 800 R0
WINDOW 0 53 52 Left 2
WINDOW 3 56 68 Invisible 2
SYMATTR InstName Q1
SYMBOL npn 3136 1200 R0
WINDOW 0 51 49 Left 2
WINDOW 3 56 68 Invisible 2
SYMATTR InstName Q5
SYMBOL res 3184 1408 R0
SYMATTR InstName R2
SYMATTR Value 22
SYMBOL cap 3328 1440 R0
SYMATTR InstName C3
SYMATTR Value 820µ
SYMBOL pnp 3328 1184 M180
WINDOW 0 51 48 Left 2
WINDOW 3 84 68 Invisible 2
SYMATTR InstName Q4
SYMBOL npn 3424 1184 R0
WINDOW 3 56 68 Invisible 2
SYMATTR InstName Q2
SYMBOL res 3648 1056 R0
WINDOW 3 36 68 Left 2
SYMATTR Value 8
SYMATTR InstName RL
SYMBOL TCLib\\Special\\arrow_curve 3680 1056 R0
SYMATTR Value Vo
SYMATTR InstName X5
SYMBOL TCLib\\Special\\bypass 3184 976 R0
SYMATTR InstName U2
RECTANGLE Normal 3808 1712 2560 496 2
