Version 4
SHEET 1 8748 12036
WIRE 800 400 784 400
WIRE 800 448 800 400
WIRE 800 576 800 528
WIRE 976 576 800 576
WIRE 800 624 800 576
WIRE 976 656 976 576
WIRE 736 672 608 672
WIRE 608 704 608 672
WIRE 608 816 608 784
WIRE 976 816 976 736
WIRE 800 880 800 720
WIRE 800 880 784 880
FLAG 976 816 0
FLAG 608 816 0
FLAG 784 400 +15V
IOPIN 784 400 In
FLAG 784 880 -15V
IOPIN 784 880 In
SYMBOL pnp 736 720 M180
WINDOW 3 84 68 Invisible 2
SYMATTR InstName Q1
SYMBOL Misc\\signal 608 688 R0
WINDOW 3 24 104 Invisible 2
SYMATTR InstName Vi
SYMBOL res 784 432 R0
SYMATTR InstName Re
SYMATTR Value 50
SYMBOL res 960 640 R0
WINDOW 3 36 76 Invisible 2
SYMATTR InstName RL
SYMBOL TCLib\\Special\\arrow_curve 992 640 R0
SYMATTR Value Vo
SYMATTR InstName X9
TEXT 608 376 Left 2 ;a
RECTANGLE Normal 1120 928 528 352 2
