Version 4
SHEET 1 8748 12036
WIRE 624 128 464 128
WIRE 1088 128 624 128
WIRE 1328 128 1088 128
WIRE 2048 128 1328 128
WIRE 2160 128 2160 80
WIRE 2160 128 2048 128
WIRE 624 192 624 128
WIRE 1088 192 1088 128
WIRE 1328 208 1328 128
WIRE 960 240 688 240
WIRE 1024 240 960 240
WIRE 960 336 960 240
WIRE 1088 336 1088 288
WIRE 1088 336 960 336
WIRE 2048 352 2048 128
WIRE 624 400 624 288
WIRE 1072 400 624 400
WIRE 1312 400 1104 400
WIRE 1504 400 1344 400
WIRE 1808 400 1600 400
WIRE 1984 400 1808 400
WIRE 2160 416 2160 128
WIRE 2048 464 2048 448
WIRE 2096 464 2048 464
WIRE 1808 544 1808 400
WIRE 1808 544 1696 544
WIRE 1328 560 1328 288
WIRE 1552 560 1552 464
WIRE 1552 560 1328 560
WIRE 1696 560 1696 544
WIRE 2160 560 2160 512
WIRE 464 640 464 128
WIRE 624 640 624 400
WIRE 1808 640 1808 544
WIRE 192 688 128 688
WIRE 336 688 272 688
WIRE 400 688 336 688
WIRE 752 688 688 688
WIRE 816 688 752 688
WIRE 960 688 896 688
WIRE 1696 688 1696 640
WIRE 1744 688 1696 688
WIRE 2160 688 2160 640
WIRE 2160 688 2064 688
WIRE 2352 688 2160 688
WIRE 1088 704 1088 336
WIRE 1328 704 1328 560
WIRE 752 736 752 688
WIRE 1696 736 1696 688
WIRE 2160 736 2160 688
WIRE 128 768 128 688
WIRE 336 768 336 688
WIRE 2352 784 2352 688
WIRE 464 816 464 736
WIRE 544 816 464 816
WIRE 624 816 624 736
WIRE 624 816 544 816
WIRE 752 848 752 816
WIRE 1696 864 1696 816
WIRE 1808 864 1808 736
WIRE 1808 864 1696 864
WIRE 2160 864 2160 816
WIRE 2096 912 2048 912
WIRE 2048 928 2048 912
WIRE 128 944 128 848
WIRE 336 944 336 848
WIRE 752 976 752 912
WIRE 1808 976 1808 864
WIRE 1984 976 1808 976
WIRE 2352 1008 2352 864
WIRE 544 1040 544 816
WIRE 1808 1040 1808 976
WIRE 1088 1088 1088 784
WIRE 1088 1088 608 1088
WIRE 1328 1088 1328 784
WIRE 1328 1088 1088 1088
WIRE 1424 1088 1328 1088
WIRE 1744 1088 1424 1088
WIRE 1328 1120 1328 1088
WIRE 1424 1168 1424 1088
WIRE 1424 1168 1392 1168
WIRE 544 1280 544 1136
WIRE 1328 1280 1328 1216
WIRE 1328 1280 544 1280
WIRE 1808 1280 1808 1136
WIRE 1808 1280 1328 1280
WIRE 2048 1280 2048 1024
WIRE 2048 1280 1808 1280
WIRE 2160 1280 2160 960
WIRE 2160 1280 2048 1280
WIRE 2160 1328 2160 1280
FLAG 2352 1008 0
FLAG 752 976 0
FLAG 336 944 0
FLAG 128 944 0
FLAG 2064 688 Vo
FLAG 960 688 Vo
FLAG 2160 80 Vcc
FLAG 2160 1328 -Vcc
SYMBOL pnp 1984 1024 M180
WINDOW 0 58 51 Left 2
WINDOW 3 84 68 Invisible 2
SYMATTR InstName Q13
SYMBOL res 2336 768 R0
SYMATTR InstName RL
SYMATTR Value 4
SYMBOL res 2144 544 R0
SYMATTR InstName Ra
SYMATTR Value 0.1
SYMBOL res 2144 720 R0
SYMATTR InstName Rb
SYMATTR Value 0.1
SYMBOL npn 1744 1040 R0
WINDOW 3 56 68 Invisible 2
SYMATTR InstName Q10
SYMBOL npn 1744 640 R0
WINDOW 3 56 68 Invisible 2
SYMATTR InstName Q8
SYMBOL res 1680 720 R0
SYMATTR InstName R10
SYMATTR Value 1k
SYMBOL res 1680 544 R0
SYMATTR InstName R9
SYMATTR Value 1k
SYMBOL pnp 1600 464 M270
WINDOW 0 58 51 Left 2
WINDOW 3 84 68 Invisible 2
SYMATTR InstName Q6
SYMBOL res 1312 192 R0
SYMATTR InstName R7
SYMATTR Value 0.1 R
SYMBOL res 1312 688 R0
SYMATTR InstName R8
SYMATTR Value 0.9 R
SYMBOL pnp 1024 288 M180
WINDOW 0 58 51 Left 2
WINDOW 3 84 68 Invisible 2
SYMATTR InstName Q4
SYMBOL pnp 688 288 R180
WINDOW 0 58 51 Left 2
WINDOW 3 84 68 Invisible 2
SYMATTR InstName Q5
SYMBOL npn 1392 1120 M0
WINDOW 3 56 68 Invisible 2
SYMATTR InstName Q7
SYMBOL res 1072 688 R0
SYMATTR InstName R5
SYMATTR Value R/1.6
SYMBOL npn 688 640 M0
WINDOW 3 56 68 Invisible 2
SYMATTR InstName Q3
SYMBOL npn 400 640 R0
WINDOW 3 56 68 Invisible 2
SYMATTR InstName Q1
SYMBOL npn 608 1040 M0
WINDOW 3 56 68 Invisible 2
SYMATTR InstName Q2
SYMBOL res 912 672 R90
WINDOW 0 2 56 VBottom 2
WINDOW 3 27 56 VTop 2
SYMATTR InstName R3
SYMATTR Value 10k
SYMBOL res 736 720 R0
SYMATTR InstName R4
SYMATTR Value 1k
SYMBOL cap 736 848 R0
SYMATTR InstName C1
SYMATTR Value 10µ
SYMBOL res 176 704 R270
WINDOW 0 27 56 VTop 2
WINDOW 3 2 56 VBottom 2
SYMATTR InstName R1
SYMATTR Value 10k
SYMBOL res 320 752 R0
SYMATTR InstName R2
SYMATTR Value 1k
SYMBOL Misc\\signal 128 752 R0
WINDOW 0 -76 58 Left 2
WINDOW 3 24 104 Invisible 2
SYMATTR InstName Vi
SYMBOL npn 1984 352 R0
WINDOW 3 56 68 Invisible 2
SYMATTR InstName Q9
SYMBOL npn 2096 416 R0
WINDOW 3 56 68 Invisible 2
SYMATTR InstName Q11
SYMBOL pnp 2096 960 M180
WINDOW 0 58 51 Left 2
WINDOW 3 84 68 Invisible 2
SYMATTR InstName Q12
SYMBOL TCLib\\Special\\bypass 1312 400 R0
SYMATTR InstName U10
SYMBOL TCLib\\Special\\bypass 1072 400 R0
SYMATTR InstName U12
