Version 4
SHEET 1 980 876
WIRE 144 16 48 16
WIRE 320 16 224 16
WIRE -128 144 -208 144
WIRE 48 144 48 16
WIRE 48 144 -48 144
WIRE 128 144 48 144
WIRE 320 176 320 16
WIRE 320 176 240 176
WIRE 368 176 320 176
WIRE 128 208 48 208
WIRE 48 240 48 208
WIRE -208 352 -208 144
WIRE 48 352 48 320
WIRE -208 480 -208 432
WIRE 48 480 48 432
FLAG -208 480 0
FLAG 48 480 0
FLAG 368 176 Vo
SYMBOL res -144 128 M90
WINDOW 0 0 56 VBottom 2
WINDOW 3 27 56 VTop 2
SYMATTR InstName R1
SYMATTR Value 25k
SYMBOL res 64 336 R180
WINDOW 0 36 76 Left 2
WINDOW 3 36 40 Left 2
SYMATTR InstName R3
SYMATTR Value 1k
SYMBOL res 128 0 M90
WINDOW 0 3 56 VBottom 2
WINDOW 3 27 56 VTop 2
SYMATTR InstName R2
SYMATTR Value 50k
SYMBOL voltage -208 336 R0
SYMATTR InstName V1
SYMATTR Value 1V
SYMBOL voltage 48 336 R0
SYMATTR InstName V2
SYMATTR Value 2V
SYMBOL TCLib\\OA_Ideal 320 128 R0
WINDOW 0 -324 11 Invisible 2
SYMATTR InstName .
SYMATTR Value ""
SYMATTR Value2 ""
RECTANGLE Normal 416 512 -256 -32 2
