Version 4
SHEET 1 880 680
WIRE 112 -240 16 -240
WIRE 288 -240 192 -240
WIRE -144 -112 -240 -112
WIRE 16 -112 16 -240
WIRE 16 -112 -64 -112
WIRE 96 -112 16 -112
WIRE 288 -80 288 -240
WIRE 288 -80 208 -80
WIRE 576 -80 288 -80
WIRE 96 -48 16 -48
WIRE -240 -32 -240 -112
WIRE 576 32 576 -80
WIRE -240 128 -240 48
WIRE 496 128 288 128
WIRE 496 208 496 128
WIRE 496 208 448 208
WIRE -144 240 -240 240
WIRE 16 240 16 -48
WIRE 16 240 -64 240
WIRE 112 240 16 240
WIRE 288 240 288 128
WIRE 288 240 192 240
WIRE 336 240 288 240
WIRE 576 272 576 112
WIRE 576 272 448 272
WIRE -240 320 -240 240
WIRE 576 336 576 272
WIRE -240 480 -240 400
WIRE 576 480 576 416
FLAG 576 480 0
FLAG -240 480 0
FLAG -240 128 0
SYMBOL TCLib\\OA_Ideal 256 192 M0
WINDOW 3 -176 32 Invisible 0
WINDOW 123 -176 48 Invisible 0
SYMATTR InstName U2
SYMBOL TCLib\\OA_Ideal 288 -32 M180
WINDOW 3 -176 32 Invisible 0
WINDOW 123 -176 48 Invisible 0
SYMATTR InstName U1
SYMBOL res -160 256 R270
WINDOW 0 27 56 VTop 2
WINDOW 3 3 56 Invisible 2
SYMATTR InstName R1
SYMBOL res 96 256 R270
WINDOW 0 27 56 VTop 2
WINDOW 3 3 56 Invisible 2
SYMATTR InstName R2
SYMBOL res -160 -96 R270
WINDOW 0 27 56 VTop 2
WINDOW 3 3 56 Invisible 2
SYMATTR InstName R3
SYMBOL res 96 -224 R270
WINDOW 0 27 56 VTop 2
WINDOW 3 3 56 Invisible 2
SYMATTR InstName R4
SYMBOL res 560 320 R0
WINDOW 3 36 76 Invisible 2
SYMATTR InstName RL
SYMBOL voltage -240 304 R0
WINDOW 3 24 96 Invisible 2
SYMATTR InstName V2
SYMBOL voltage -240 -48 R0
WINDOW 3 24 96 Invisible 2
SYMATTR InstName V1
SYMBOL res 560 16 R0
WINDOW 3 36 76 Invisible 2
SYMATTR InstName R5
SYMBOL TCLib\\Special\\arrow 544 352 M90
SYMATTR Value Io
SYMATTR InstName X1
RECTANGLE Normal 640 -288 -304 512 2
