Version 4
SHEET 1 880 1076
WIRE -1856 272 -1952 272
WIRE -1680 272 -1776 272
WIRE -1568 272 -1680 272
WIRE -1392 272 -1488 272
WIRE -1952 336 -1952 272
WIRE -1680 400 -1680 272
WIRE -1600 400 -1680 400
WIRE -1392 432 -1392 272
WIRE -1392 432 -1488 432
WIRE -1360 432 -1392 432
WIRE -1856 464 -1952 464
WIRE -1680 464 -1776 464
WIRE -1600 464 -1680 464
WIRE -1952 544 -1952 464
WIRE -1680 656 -1680 464
WIRE -1568 656 -1680 656
WIRE -1392 656 -1488 656
WIRE -1952 672 -1952 624
WIRE -1680 784 -1680 656
WIRE -1600 784 -1680 784
WIRE -1392 816 -1392 656
WIRE -1392 816 -1488 816
WIRE -1600 848 -1680 848
WIRE -1680 976 -1680 848
WIRE -1568 976 -1680 976
WIRE -1392 976 -1392 816
WIRE -1392 976 -1488 976
FLAG -1360 432 Vo
FLAG -1952 672 0
FLAG -1952 336 0
SYMBOL voltage -1952 528 R0
WINDOW 3 16 97 Left 2
WINDOW 123 0 0 Left 0
WINDOW 39 0 0 Left 0
SYMATTR Value 10mV
SYMATTR InstName Vi
SYMBOL res -1872 448 M90
WINDOW 0 3 56 VBottom 2
WINDOW 3 27 56 VTop 2
SYMATTR InstName Rg
SYMATTR Value 5k
SYMBOL TCLib\\OA_Ideal -1408 384 R0
SYMATTR InstName U1
SYMATTR Value ""
SYMATTR Value2 ""
SYMBOL res -1872 256 M90
WINDOW 0 3 56 VBottom 2
WINDOW 3 27 56 VTop 2
SYMATTR InstName Ra
SYMATTR Value 1k
SYMBOL res -1584 256 M90
WINDOW 0 3 56 VBottom 2
WINDOW 3 27 56 VTop 2
SYMATTR InstName Rb
SYMATTR Value 99k
SYMBOL res -1472 640 R90
WINDOW 0 3 56 VBottom 2
WINDOW 3 27 56 VTop 2
SYMATTR InstName R1
SYMATTR Value ""
SYMBOL TCLib\\OA_Ideal -1408 864 M180
SYMATTR InstName U2
SYMATTR Value ""
SYMATTR Value2 ""
SYMBOL res -1472 960 R90
WINDOW 0 3 56 VBottom 2
WINDOW 3 27 56 VTop 2
SYMATTR InstName R2
SYMATTR Value ""
RECTANGLE Normal -1312 992 -2000 224 2
