Version 4
SHEET 1 880 680
WIRE 256 -288 112 -288
WIRE 0 -256 -80 -256
WIRE 256 -240 256 -288
WIRE 192 -224 112 -224
WIRE -80 -80 -80 -256
WIRE -80 -80 -112 -80
WIRE 16 -80 -80 -80
WIRE 192 -80 192 -224
WIRE 192 -80 96 -80
WIRE 272 -80 192 -80
WIRE 480 -80 352 -80
WIRE -80 32 -80 -80
WIRE 288 128 192 128
WIRE 480 128 480 -80
WIRE 480 128 368 128
WIRE 512 128 480 128
WIRE -80 240 -80 112
WIRE -80 240 -224 240
WIRE 16 240 -80 240
WIRE 192 240 192 128
WIRE 192 240 96 240
WIRE 256 240 192 240
WIRE -224 272 -224 240
WIRE 480 272 480 128
WIRE 480 272 368 272
WIRE 256 304 192 304
WIRE -224 400 -224 352
WIRE 192 400 192 304
FLAG -224 400 0
FLAG 192 400 0
FLAG 256 -240 0
FLAG 512 128 Vx
FLAG -112 -80 Vy
SYMBOL voltage -224 256 R0
SYMATTR InstName Vi
SYMATTR Value ""
SYMBOL TCLib\\OA_Ideal 448 224 R0
SYMATTR InstName U1
SYMATTR Value ""
SYMATTR Value2 ""
SYMBOL res 272 112 M90
WINDOW 0 3 56 VBottom 2
WINDOW 3 27 56 VTop 2
SYMATTR InstName R2
SYMATTR Value ""
SYMBOL res 0 224 M90
WINDOW 0 3 56 VBottom 2
WINDOW 3 27 56 VTop 2
SYMATTR InstName R1
SYMATTR Value ""
SYMBOL res 368 -96 R90
WINDOW 0 3 56 VBottom 2
WINDOW 3 27 56 VTop 2
SYMATTR InstName R2
SYMATTR Value ""
SYMBOL res -96 16 R0
SYMATTR InstName R3
SYMATTR Value ""
SYMBOL res 112 -96 R90
WINDOW 0 3 56 VBottom 2
WINDOW 3 27 56 VTop 2
SYMATTR InstName 2R1
SYMATTR Value ""
SYMBOL TCLib\\OA_Ideal -80 -208 R180
SYMATTR InstName U2
SYMATTR Value ""
SYMATTR Value2 ""
SYMBOL TCLib\\Special\\arrow_Z -240 208 R0
SYMATTR InstName X1
RECTANGLE Normal 560 448 -272 -320 2
