Version 4
SHEET 1 880 724
WIRE -320 -112 -544 -112
WIRE -96 -80 -208 -80
WIRE 0 -80 -96 -80
WIRE -544 -64 -544 -112
WIRE -320 -48 -400 -48
WIRE -96 -32 -96 -80
WIRE -544 64 -544 16
WIRE -400 96 -400 -48
WIRE -96 96 -96 48
WIRE -96 96 -400 96
WIRE -96 160 -96 96
WIRE 96 208 -48 208
WIRE 288 208 176 208
WIRE -96 304 -96 240
WIRE -96 304 -400 304
WIRE -96 352 -96 304
WIRE -400 448 -400 304
WIRE -320 448 -400 448
WIRE -96 480 -96 432
WIRE -96 480 -208 480
WIRE 80 480 -96 480
WIRE -320 512 -544 512
WIRE 288 512 288 208
WIRE 288 512 192 512
WIRE 80 544 32 544
WIRE -544 560 -544 512
WIRE 32 592 32 544
WIRE -544 688 -544 640
FLAG 32 592 0
FLAG -544 688 0
FLAG -544 64 0
FLAG 0 -80 Vo
SYMBOL TCLib\\OA_Ideal -128 -32 M180
SYMATTR InstName U2
SYMATTR Value ""
SYMATTR Value2 ""
SYMBOL res -112 -48 R0
SYMATTR InstName R2
SYMATTR Value 20k
SYMBOL TCLib\\pot -112 144 R0
WINDOW 0 26 15 Left 0
WINDOW 3 38 39 Left 1
SYMATTR InstName U3
SYMATTR Value2 ""
SYMBOL TCLib\\OA_Ideal -128 432 R0
SYMATTR InstName U1
SYMATTR Value ""
SYMATTR Value2 ""
SYMBOL res -112 336 R0
SYMATTR InstName R1
SYMATTR Value 20k
SYMBOL res 192 192 R90
WINDOW 0 3 56 VBottom 2
WINDOW 3 27 56 VTop 2
SYMATTR InstName R3
SYMATTR Value 30k
SYMBOL TCLib\\OA_Ideal 272 560 M180
SYMATTR InstName U3
SYMATTR Value ""
SYMATTR Value2 ""
SYMBOL voltage -544 544 R0
SYMATTR InstName V1
SYMATTR Value ""
SYMBOL voltage -544 -80 R0
SYMATTR InstName V2
SYMATTR Value ""
RECTANGLE Normal 304 720 -592 -144 2
