Version 4
SHEET 1 880 680
SYMBOL TCLib\\Special\\arrow 0 -64 R90
SYMATTR Value Start
SYMATTR InstName X1
TEXT -24 -88 Left 2 ;(0,0)
RECTANGLE Normal 576 336 0 0 2
