Version 4
SHEET 1 880 680
WIRE 272 48 176 48
WIRE 432 48 352 48
WIRE 176 112 176 48
WIRE 256 112 176 112
WIRE 432 144 432 48
WIRE 432 144 368 144
WIRE 496 144 432 144
WIRE 80 176 48 176
WIRE 128 176 80 176
WIRE 256 176 208 176
WIRE 48 192 48 176
WIRE 48 304 48 272
FLAG 48 304 0
FLAG 496 144 Vout
FLAG 80 176 Vin
SYMBOL TCLib\\OA_Ideal 448 96 R0
SYMATTR InstName U1
SYMBOL res 112 192 R270
WINDOW 0 27 56 VTop 2
WINDOW 3 3 56 VBottom 2
SYMATTR InstName Ri
SYMBOL res 256 64 R270
WINDOW 0 27 56 VTop 2
WINDOW 3 3 56 VBottom 2
SYMATTR InstName Rf
SYMBOL voltage 48 176 R0
SYMATTR InstName V1
RECTANGLE Normal 576 336 0 0 2
