Version 4
SHEET 1 9348 6404
WIRE 6016 1136 6016 1088
WIRE 6016 1248 6016 1216
WIRE 6128 1248 6016 1248
WIRE 6304 1248 6192 1248
WIRE 5536 1264 5536 1232
WIRE 5824 1296 5824 1088
WIRE 6016 1296 6016 1248
WIRE 6304 1312 6304 1248
WIRE 5168 1344 5056 1344
WIRE 5360 1344 5248 1344
WIRE 5408 1344 5360 1344
WIRE 5760 1344 5616 1344
WIRE 6128 1344 6080 1344
WIRE 5056 1424 5056 1344
WIRE 5824 1424 5824 1392
WIRE 5920 1424 5824 1424
WIRE 6016 1424 6016 1392
WIRE 6016 1424 5920 1424
WIRE 5360 1440 5360 1344
WIRE 5920 1472 5920 1424
WIRE 6128 1472 6128 1344
WIRE 6304 1472 6304 1392
WIRE 5056 1600 5056 1504
WIRE 5360 1600 5360 1504
WIRE 5536 1600 5536 1424
WIRE 5920 1600 5920 1552
FLAG 5056 1600 0
FLAG 5360 1600 0
FLAG 5536 1600 0
FLAG 6128 1472 0
FLAG 6304 1472 0
FLAG 5920 1600 -2V
FLAG 5824 1088 35V
FLAG 6016 1088 35V
SYMBOL voltage 5056 1408 R0
WINDOW 3 24 152 Invisible 2
SYMATTR Value SINE(0 1m 1Meg)
SYMATTR Value2 AC 1
SYMATTR InstName Vi
SYMBOL res 5264 1328 R90
WINDOW 0 0 56 VBottom 2
WINDOW 3 32 56 VTop 2
SYMATTR InstName Rg
SYMATTR Value 77.8k
SYMBOL npn 5760 1296 R0
WINDOW 3 56 68 Invisible 2
SYMATTR Value BC548C
SYMATTR InstName Q1
SYMBOL npn 6080 1296 M0
WINDOW 3 56 68 Invisible 2
SYMATTR Value BC548C
SYMATTR InstName Q2
SYMBOL current 5920 1472 R0
WINDOW 123 0 0 Left 0
WINDOW 39 0 0 Left 0
SYMATTR InstName I1
SYMATTR Value 550µ
SYMBOL res 6000 1120 R0
SYMATTR InstName Rc
SYMATTR Value 100k
SYMBOL cap 6192 1232 R90
WINDOW 0 0 32 VBottom 2
WINDOW 3 32 32 VTop 2
SYMATTR InstName C1
SYMATTR Value 10µ
SYMBOL res 6288 1296 R0
SYMATTR InstName RL
SYMATTR Value 10k
SYMBOL cap 5344 1440 R0
SYMATTR InstName C2
SYMATTR Value 2pF
SYMBOL TCLib\\Special\\L_Tap 5552 1248 M0
SYMATTR InstName U2
SYMATTR Value L=227u
SYMATTR Value2 n=2
TEXT 5160 1224 Left 2 ;G
LINE Normal 5168 1248 5280 1248 2
LINE Normal 5280 1248 5280 1648 2
LINE Normal 5168 1648 5280 1648 2
