Version 4
SHEET 1 9348 6404
WIRE 1776 1936 1776 1888
WIRE 1776 2048 1776 2016
WIRE 1920 2048 1776 2048
WIRE 2160 2048 1984 2048
WIRE 2160 2080 2160 2048
WIRE 1584 2096 1584 1888
WIRE 1776 2096 1776 2048
WIRE 1520 2144 1376 2144
WIRE 1888 2144 1840 2144
WIRE 2320 2160 2192 2160
WIRE 2464 2160 2320 2160
WIRE 1888 2192 1888 2144
WIRE 1584 2224 1584 2192
WIRE 1680 2224 1584 2224
WIRE 1776 2224 1776 2192
WIRE 1776 2224 1680 2224
WIRE 2464 2224 2464 2160
WIRE 1376 2240 1376 2144
WIRE 2320 2240 2320 2160
WIRE 1680 2272 1680 2224
WIRE 1376 2384 1376 2320
WIRE 2160 2384 2160 2240
WIRE 2320 2384 2320 2304
WIRE 2464 2384 2464 2304
WIRE 1680 2400 1680 2352
FLAG 1376 2384 0
FLAG 1888 2192 0
FLAG 2160 2384 0
FLAG 2320 2384 0
FLAG 2464 2384 0
FLAG 1680 2400 -15v
FLAG 1584 1888 10V
FLAG 1776 1888 10V
SYMBOL npn 1520 2096 R0
WINDOW 3 56 68 Invisible 2
SYMATTR Value BC548C
SYMATTR InstName Q1
SYMBOL npn 1840 2096 M0
WINDOW 3 56 68 Invisible 2
SYMATTR Value BC548C
SYMATTR InstName Q2
SYMBOL current 1680 2272 R0
WINDOW 123 0 0 Left 0
WINDOW 39 0 0 Left 0
SYMATTR InstName I
SYMATTR Value 0.2m
SYMBOL voltage 1376 2224 R0
SYMATTR InstName Vi
SYMATTR Value ""
SYMATTR Value2 AC 1
SYMBOL res 1760 1920 R0
SYMATTR InstName Rc
SYMATTR Value 100k
SYMBOL TCLib\\Special\\L_Tap 2176 2064 M0
WINDOW 0 27 160 Invisible 0
SYMATTR InstName U4
SYMATTR Value L=403u
SYMBOL cap 1984 2032 R90
WINDOW 0 0 32 VBottom 2
WINDOW 3 32 32 VTop 2
SYMATTR InstName C1
SYMATTR Value 1µ
SYMBOL cap 2304 2240 R0
WINDOW 3 24 56 Invisible 2
SYMATTR Value 810p
SYMATTR InstName Cc
SYMBOL res 2448 2208 R0
SYMATTR InstName RL
SYMATTR Value 10k
RECTANGLE Normal 2560 2464 1264 1808 2
