Version 4
SHEET 1 7772 18116
WIRE 4432 1600 4320 1600
WIRE 4624 1600 4432 1600
WIRE 5104 1600 4720 1600
WIRE 5328 1600 5104 1600
WIRE 4432 1856 4432 1600
WIRE 5104 1872 5104 1600
WIRE 4672 2000 4672 1664
WIRE 4864 2000 4864 1840
WIRE 4432 2048 4432 1936
WIRE 4608 2048 4432 2048
WIRE 5104 2048 5104 1952
WIRE 5104 2048 4928 2048
WIRE 4672 2144 4672 2096
WIRE 4768 2144 4672 2144
WIRE 4864 2144 4864 2096
WIRE 4864 2144 4768 2144
WIRE 5328 2208 5328 1600
WIRE 4432 2224 4432 2048
WIRE 4768 2224 4768 2144
WIRE 5104 2224 5104 2048
WIRE 4432 2384 4432 2288
WIRE 4768 2384 4768 2304
WIRE 5104 2384 5104 2304
WIRE 5328 2384 5328 2288
FLAG 4320 1600 V+
FLAG 5104 2384 0
FLAG 4432 2384 0
FLAG 4864 1840 V+
FLAG 4768 2384 0
FLAG 5328 2384 0
SYMBOL pnp 4720 1664 M270
WINDOW 3 84 68 Invisible 2
SYMATTR Value TIP32C
SYMATTR InstName Q1
SYMBOL res 5088 1856 R0
SYMATTR InstName Ra
SYMATTR Value 2.7k
SYMBOL npn 4608 2000 R0
WINDOW 3 56 68 Invisible 2
SYMATTR Value BC549C
SYMATTR InstName Q2
SYMBOL res 5088 2208 R0
SYMATTR InstName Rb
SYMATTR Value 1k
SYMBOL zener 4448 2288 R180
WINDOW 0 24 64 Left 2
WINDOW 3 24 0 Invisible 2
SYMATTR InstName Dz
SYMATTR Value BZX384B2V7
SYMBOL res 4416 1840 R0
SYMATTR InstName R1
SYMATTR Value 1k
SYMBOL npn 4928 2000 M0
WINDOW 3 56 68 Invisible 2
SYMATTR Value BC549C
SYMATTR InstName Q3
SYMBOL res 4752 2208 R0
SYMATTR InstName Re
SYMATTR Value 100
SYMBOL res 5312 2192 R0
WINDOW 3 36 76 Invisible 2
SYMATTR InstName RL
SYMBOL TCLib\\Special\\arrow_curve 5360 2192 R0
SYMATTR Value Vo
SYMATTR InstName X18
SYMBOL TCLib\\Special\\arrow 5264 2224 M90
SYMATTR Value Io
SYMATTR InstName X19
RECTANGLE Normal 5472 2416 4256 1504 2
