Version 4
SHEET 1 7772 18116
WIRE 240 4400 176 4400
WIRE 496 4400 432 4400
WIRE 640 4400 576 4400
WIRE 768 4400 640 4400
WIRE 768 4496 768 4400
WIRE 336 4528 336 4464
WIRE 640 4528 640 4400
WIRE 640 4528 336 4528
WIRE 768 4624 768 4576
FLAG 176 4400 Vi
FLAG 768 4624 0
SYMBOL TCLib\\Regulators\\7805 336 4400 R0
WINDOW 0 66 -52 Invisible 0
SYMATTR InstName U3
SYMBOL res 480 4384 M90
WINDOW 0 2 56 VBottom 2
WINDOW 3 27 56 Invisible 2
SYMATTR InstName R1
SYMBOL res 784 4480 M0
WINDOW 3 36 76 Invisible 2
SYMATTR InstName RL
SYMBOL TCLib\\Special\\arrow 688 4384 R0
SYMATTR Value Io
SYMATTR InstName X8
SYMBOL TCLib\\Special\\arrow_curve 768 4480 R0
SYMATTR Value Vo
SYMATTR InstName X9
RECTANGLE Normal 864 4656 112 4336 2
