Version 4
SHEET 1 7772 18116
WIRE 6096 2592 5888 2592
WIRE 6304 2592 6096 2592
WIRE 6560 2592 6400 2592
WIRE 6784 2592 6560 2592
WIRE 6096 2672 6096 2592
WIRE 6560 2768 6560 2592
WIRE 6096 2864 6096 2752
WIRE 6352 2864 6352 2656
WIRE 6352 2864 6096 2864
WIRE 5888 2896 5888 2592
WIRE 6352 2944 6352 2864
WIRE 6560 2992 6560 2848
WIRE 6560 2992 6416 2992
WIRE 6560 3104 6560 2992
WIRE 6784 3104 6784 2592
WIRE 5888 3280 5888 2960
WIRE 6352 3280 6352 3040
WIRE 6560 3280 6560 3184
WIRE 6784 3280 6784 3184
FLAG 6352 3280 0
FLAG 6784 3280 0
FLAG 5888 3280 0
FLAG 6560 3280 0
SYMBOL npn 6304 2656 R270
WINDOW 3 56 68 Invisible 2
SYMATTR InstName Q1
SYMBOL npn 6416 2944 M0
WINDOW 3 56 68 Invisible 2
SYMATTR InstName Q2
SYMBOL res 6544 2752 R0
SYMATTR InstName Ra
SYMATTR Value 4300
SYMBOL res 6768 3088 R0
WINDOW 3 36 68 Left 2
SYMATTR Value 100
SYMATTR InstName RL
SYMBOL TCLib\\Special\\arrow_curve 6816 3088 R0
SYMATTR Value Vo
SYMATTR InstName X20
SYMBOL res 6080 2656 R0
SYMATTR InstName R1
SYMATTR Value 1k
SYMBOL Misc\\cell 5888 2896 R0
WINDOW 123 0 0 Left 0
WINDOW 39 0 0 Left 0
SYMATTR InstName Vg1
SYMATTR Value 10
SYMBOL res 6544 3088 R0
SYMATTR InstName Rb
SYMATTR Value 700
RECTANGLE Normal 6928 3312 5824 2528 2
