Version 4
SHEET 1 7772 18116
WIRE 2416 1536 2224 1536
WIRE 2592 1536 2416 1536
WIRE 2784 1536 2592 1536
WIRE 2896 1536 2784 1536
WIRE 3088 1536 2896 1536
WIRE 3648 1536 3184 1536
WIRE 2416 1584 2416 1536
WIRE 2592 1600 2592 1536
WIRE 3136 1648 3136 1600
WIRE 3360 1648 3136 1648
WIRE 3648 1648 3648 1536
WIRE 3648 1648 3440 1648
WIRE 2416 1680 2416 1648
WIRE 2896 1696 2896 1536
WIRE 2960 1696 2896 1696
WIRE 3136 1696 3136 1648
WIRE 3136 1696 3056 1696
WIRE 2592 1728 2592 1680
WIRE 2416 1776 2416 1744
WIRE 2528 1776 2416 1776
WIRE 2224 1792 2224 1536
WIRE 2416 1840 2416 1776
WIRE 2592 1872 2592 1824
WIRE 3008 1872 3008 1760
WIRE 3008 1872 2592 1872
WIRE 3280 1872 3008 1872
WIRE 3280 1888 3280 1872
WIRE 3408 1936 3344 1936
WIRE 3472 1936 3408 1936
WIRE 3648 1936 3648 1648
WIRE 3648 1936 3552 1936
WIRE 2416 1984 2416 1920
WIRE 3408 1984 3408 1936
WIRE 3648 2000 3648 1936
WIRE 2224 2080 2224 1856
WIRE 2288 2080 2224 2080
WIRE 3408 2096 3408 2064
WIRE 2288 2128 2288 2080
WIRE 3280 2160 3280 1984
WIRE 3648 2160 3648 2080
WIRE 3648 2160 3280 2160
WIRE 2784 2240 2784 1536
WIRE 3008 2240 3008 1872
WIRE 2576 2288 2496 2288
WIRE 2720 2288 2656 2288
WIRE 3280 2288 3072 2288
WIRE 3424 2288 3280 2288
WIRE 3648 2288 3648 2160
WIRE 3648 2288 3504 2288
WIRE 2224 2304 2224 2080
WIRE 2496 2336 2496 2288
WIRE 2784 2368 2784 2336
WIRE 2896 2368 2784 2368
WIRE 3008 2368 3008 2336
WIRE 3008 2368 2896 2368
WIRE 3280 2400 3280 2288
WIRE 3648 2400 3648 2288
WIRE 2896 2416 2896 2368
WIRE 2224 2544 2224 2368
WIRE 2640 2544 2224 2544
WIRE 2896 2544 2896 2496
WIRE 2896 2544 2720 2544
WIRE 3280 2544 3280 2480
WIRE 3280 2544 2896 2544
WIRE 3648 2576 3648 2480
WIRE 2896 2608 2896 2544
WIRE 2896 2736 2896 2672
FLAG 2896 2736 0
FLAG 3648 2576 0
FLAG 3408 2096 0
FLAG 2288 2128 0
FLAG 2416 1984 0
FLAG 2496 2336 0
SYMBOL npn 3088 1600 R270
WINDOW 3 56 68 Invisible 2
SYMATTR InstName Q1
SYMBOL npn 2960 1760 R270
WINDOW 3 56 68 Invisible 2
SYMATTR InstName Q2
SYMBOL res 3344 1664 R270
WINDOW 0 27 56 VTop 2
WINDOW 3 2 56 VBottom 2
SYMATTR InstName R1
SYMATTR Value 100
SYMBOL npn 3072 2240 M0
WINDOW 3 56 68 Invisible 2
SYMATTR InstName Q4
SYMBOL zener 2880 2608 R0
WINDOW 3 24 64 Invisible 2
SYMATTR Value 1N750
SYMATTR InstName Dz
SYMBOL res 3264 2384 R0
SYMATTR InstName R10
SYMATTR Value 6.3k
SYMBOL res 3520 2272 R90
WINDOW 0 2 56 VBottom 2
WINDOW 3 27 56 VTop 2
SYMATTR InstName R5
SYMATTR Value 22k
SYMBOL res 3632 2384 R0
WINDOW 3 36 76 Invisible 2
SYMATTR InstName RL
SYMBOL TCLib\\Special\\arrow_curve 3680 2384 R0
SYMATTR Value Vo
SYMATTR InstName X4
SYMBOL res 3632 1984 R0
SYMATTR InstName R4
SYMATTR Value 0.5
SYMBOL npn 3344 1888 M0
WINDOW 3 56 68 Invisible 2
SYMATTR InstName Q3
SYMBOL res 3568 1920 R90
WINDOW 0 2 56 VBottom 2
WINDOW 3 27 56 VTop 2
SYMATTR InstName R3
SYMATTR Value 200
SYMBOL res 3392 1968 R0
SYMATTR InstName R2
SYMATTR Value 10k
SYMBOL res 2576 1584 R0
SYMATTR InstName R6
SYMATTR Value 120
SYMBOL Misc\\cell 2224 1792 R0
SYMATTR InstName V2
SYMATTR Value 30
SYMBOL npn 2720 2240 R0
WINDOW 3 56 68 Invisible 2
SYMATTR InstName Q5
SYMBOL res 2880 2400 R0
SYMATTR InstName R9
SYMATTR Value 700
SYMBOL pnp 2528 1824 M180
WINDOW 3 84 68 Invisible 2
SYMATTR InstName Q6
SYMBOL diode 2400 1584 R0
WINDOW 3 24 64 Invisible 2
SYMATTR InstName D1
SYMBOL diode 2400 1680 R0
WINDOW 3 24 64 Invisible 2
SYMATTR InstName D2
SYMBOL res 2400 1824 R0
SYMATTR InstName R7
SYMATTR Value 1k
SYMBOL res 2624 2528 M90
WINDOW 0 2 56 VBottom 2
WINDOW 3 27 56 VTop 2
SYMATTR InstName R11
SYMATTR Value 270
SYMBOL Misc\\cell 2224 2304 R0
SYMATTR InstName V1
SYMATTR Value 12
SYMBOL res 2672 2272 R90
WINDOW 0 2 56 VBottom 2
WINDOW 3 27 56 VTop 2
SYMATTR InstName R8
SYMATTR Value 4.7k
SYMBOL TCLib\\Special\\arrow 3584 2416 M90
SYMATTR Value Io
SYMATTR InstName X5
RECTANGLE Normal 3792 2768 2160 1424 2
