Version 4
SHEET 1 7772 18116
WIRE 6112 4016 5888 4016
WIRE 6256 4016 6112 4016
WIRE 6464 4016 6256 4016
WIRE 6608 4016 6464 4016
WIRE 6976 4016 6704 4016
WIRE 6464 4096 6464 4016
WIRE 6112 4112 6112 4016
WIRE 6256 4112 6256 4016
WIRE 6608 4144 6528 4144
WIRE 6816 4144 6640 4144
WIRE 6816 4192 6816 4144
WIRE 6976 4240 6976 4016
WIRE 6976 4240 6880 4240
WIRE 6976 4288 6976 4240
WIRE 6256 4320 6256 4192
WIRE 6464 4320 6464 4192
WIRE 6464 4320 6256 4320
WIRE 6624 4320 6624 4064
WIRE 6624 4320 6464 4320
WIRE 5888 4384 5888 4016
WIRE 6624 4416 6624 4320
WIRE 6816 4416 6816 4288
WIRE 6976 4416 6976 4368
WIRE 6976 4416 6816 4416
WIRE 6112 4464 6112 4192
WIRE 6560 4464 6112 4464
WIRE 6624 4544 6624 4512
WIRE 6976 4544 6976 4416
WIRE 6976 4544 6624 4544
WIRE 6112 4576 6112 4464
WIRE 6976 4624 6976 4544
WIRE 5888 4768 5888 4448
WIRE 6112 4768 6112 4640
WIRE 6976 4768 6976 4704
FLAG 5888 4768 0
FLAG 6976 4768 0
FLAG 6112 4768 0
SYMBOL pmos 6704 4064 M270
WINDOW 3 56 72 Invisible 2
SYMATTR Value IRF9640
SYMATTR InstName M1
SYMBOL res 6960 4608 R0
WINDOW 3 36 76 Invisible 2
SYMATTR Value 10
SYMATTR InstName RL
SYMBOL zener 6128 4640 R180
WINDOW 0 24 64 Left 2
WINDOW 3 24 0 Invisible 2
SYMATTR InstName Dz
SYMATTR Value 1N750
SYMBOL npn 6560 4416 R0
WINDOW 3 56 68 Invisible 2
SYMATTR InstName Q1
SYMBOL res 6128 4096 M0
SYMATTR InstName R1
SYMATTR Value 330
SYMBOL res 6240 4096 R0
SYMATTR InstName R2
SYMATTR Value 10k
SYMBOL res 6960 4272 R0
SYMATTR InstName Rs
SYMATTR Value 0.7
SYMBOL npn 6880 4192 M0
WINDOW 3 56 68 Invisible 2
SYMATTR InstName Q2
SYMBOL Misc\\cell 5888 4384 R0
WINDOW 123 0 0 Left 0
WINDOW 39 0 0 Left 0
SYMATTR InstName Vg
SYMATTR Value 20
SYMBOL pnp 6528 4192 R180
SYMATTR InstName Q3
SYMBOL TCLib\\Special\\bypass 6608 4144 R0
SYMATTR InstName U1
RECTANGLE Normal 7072 4800 5824 3968 2
