Version 4
SHEET 1 7772 18116
WIRE 4016 432 4016 384
WIRE 4656 432 4656 384
WIRE 4144 480 4080 480
WIRE 4208 480 4144 480
WIRE 4384 480 4384 384
WIRE 4384 480 4288 480
WIRE 4784 480 4720 480
WIRE 4848 480 4784 480
WIRE 5024 480 5024 384
WIRE 5024 480 4928 480
WIRE 4144 528 4144 480
WIRE 4784 528 4784 480
WIRE 4384 544 4384 480
WIRE 5024 544 5024 480
WIRE 4144 640 4144 608
WIRE 4784 640 4784 608
WIRE 4016 704 4016 528
WIRE 4384 704 4384 624
WIRE 4384 704 4016 704
WIRE 4656 704 4656 528
WIRE 5024 704 5024 624
WIRE 5024 704 4656 704
WIRE 5024 736 5024 704
WIRE 4016 832 3968 832
WIRE 4160 832 4016 832
WIRE 4384 832 4384 704
WIRE 4384 832 4240 832
WIRE 4656 832 4608 832
WIRE 4800 832 4656 832
WIRE 5024 832 5024 784
WIRE 5024 832 4880 832
WIRE 4384 864 4384 832
WIRE 4384 944 4384 912
WIRE 5024 944 5024 832
WIRE 4016 992 4016 832
WIRE 4656 992 4656 832
WIRE 4016 1120 4016 1072
WIRE 4384 1120 4384 1024
WIRE 4656 1120 4656 1072
WIRE 5024 1120 5024 1024
FLAG 4016 1120 0
FLAG 4384 1120 0
FLAG 4144 640 0
FLAG 4656 1120 0
FLAG 5024 1120 0
FLAG 4784 640 0
SYMBOL res 4000 976 R0
SYMATTR InstName R7
SYMATTR Value 680
SYMBOL res 4256 816 R90
WINDOW 0 2 56 VBottom 2
WINDOW 3 27 56 VTop 2
SYMATTR InstName R8
SYMATTR Value 2.2k
SYMBOL res 4368 928 R0
WINDOW 3 36 76 Invisible 2
SYMATTR InstName RL
SYMBOL TCLib\\Special\\arrow_curve 4416 928 R0
SYMATTR Value Vo
SYMATTR InstName X6
SYMBOL res 4368 528 R0
SYMATTR InstName R6
SYMATTR Value 0.18
SYMBOL npn 4080 432 M0
WINDOW 3 56 68 Invisible 2
SYMATTR InstName Q3
SYMBOL res 4304 464 R90
WINDOW 0 2 56 VBottom 2
WINDOW 3 27 56 VTop 2
SYMATTR InstName R4
SYMATTR Value 100
SYMBOL res 4128 512 R0
SYMATTR InstName R3
SYMATTR Value 10k
SYMBOL TCLib\\Special\\ampmeter 4384 848 R0
WINDOW 0 -23 14 Invisible 1
SYMATTR InstName V3
SYMBOL res 4640 976 R0
SYMATTR InstName R7
SYMATTR Value 680
SYMBOL res 4896 816 R90
WINDOW 0 2 56 VBottom 2
WINDOW 3 27 56 VTop 2
SYMATTR InstName R8
SYMATTR Value 2.2k
SYMBOL res 5008 928 R0
WINDOW 3 36 76 Invisible 2
SYMATTR InstName RL
SYMBOL TCLib\\Special\\arrow_curve 5056 928 R0
SYMATTR Value Vo
SYMATTR InstName X7
SYMBOL res 5008 528 R0
SYMATTR InstName R6
SYMATTR Value 0.18
SYMBOL npn 4720 432 M0
WINDOW 3 56 68 Invisible 2
SYMATTR InstName Q3
SYMBOL res 4944 464 R90
WINDOW 0 2 56 VBottom 2
WINDOW 3 27 56 VTop 2
SYMATTR InstName R4
SYMATTR Value 100
SYMBOL res 4768 512 R0
SYMATTR InstName R3
SYMATTR Value 10k
SYMBOL TCLib\\Special\\ampmeter 5024 720 R0
WINDOW 0 -23 14 Invisible 1
SYMATTR InstName V4
TEXT 3968 352 Left 2 ;a
TEXT 4616 352 Left 2 ;b
RECTANGLE Normal 5168 1152 3920 336 2
