Version 4
SHEET 1 7772 18116
WIRE 3552 4256 3376 4256
WIRE 3792 4256 3632 4256
WIRE 3376 4400 3376 4256
WIRE 3376 4400 3264 4400
WIRE 3488 4400 3376 4400
WIRE 3792 4400 3792 4256
WIRE 3792 4400 3680 4400
WIRE 3920 4400 3792 4400
WIRE 3264 4480 3264 4400
WIRE 3920 4480 3920 4400
WIRE 3264 4624 3264 4544
WIRE 3584 4624 3584 4464
WIRE 3920 4624 3920 4560
FLAG 3920 4624 0
FLAG 3584 4624 0
FLAG 3264 4624 0
SYMBOL TCLib\\Regulators\\7805 3584 4400 R0
WINDOW 0 66 -52 Invisible 0
SYMATTR InstName U8
SYMATTR SpiceModel LM7810
SYMBOL res 3936 4464 M0
WINDOW 3 36 76 Invisible 2
SYMATTR InstName RL
SYMBOL TCLib\\Special\\arrow 3840 4384 R0
SYMATTR Value Io
SYMATTR InstName X14
SYMBOL TCLib\\Special\\arrow_curve 3920 4464 R0
SYMATTR Value Vo
SYMATTR InstName X15
SYMBOL res 3536 4240 M90
WINDOW 0 2 56 VBottom 2
WINDOW 3 27 56 VTop 2
SYMATTR InstName R1
SYMATTR Value 10
SYMBOL Misc\\cell 3264 4480 R0
SYMATTR InstName Vi
SYMATTR Value 20
RECTANGLE Normal 4032 4656 3216 4208 2
