Version 4
SHEET 1 880 692
WIRE -16 -32 -160 -32
WIRE 496 0 96 0
WIRE 528 0 496 0
WIRE -160 16 -160 -32
WIRE -16 32 -80 32
WIRE 496 32 496 0
WIRE -160 160 -160 96
WIRE -80 160 -80 32
WIRE 176 160 -80 160
WIRE 496 160 496 112
WIRE 496 160 256 160
WIRE -80 288 -80 160
WIRE 16 288 -80 288
WIRE 208 288 96 288
WIRE 336 288 208 288
WIRE 496 288 496 160
WIRE 496 288 416 288
WIRE 496 416 496 288
WIRE 496 416 464 416
WIRE -80 448 -80 288
WIRE 208 448 208 288
WIRE 352 448 208 448
WIRE 528 480 464 480
WIRE 528 528 528 480
WIRE -80 672 -80 528
WIRE 528 672 528 608
FLAG -80 672 0
FLAG 528 0 Vo
FLAG -160 160 0
FLAG 528 672 0
SYMBOL TCLib\\OA_Ideal 176 -48 R0
WINDOW 123 -176 48 Invisible 0
WINDOW 3 -176 32 Invisible 0
SYMATTR Value2 GBWP=1Meg
SYMATTR InstName U1
SYMBOL res 272 144 R90
WINDOW 0 0 56 VBottom 2
WINDOW 3 32 56 Invisible 2
SYMATTR InstName R4
SYMATTR Value 20k
SYMBOL res 512 128 R180
WINDOW 0 36 76 Left 2
WINDOW 3 36 40 Invisible 2
SYMATTR InstName R5
SYMATTR Value 1k
SYMBOL res 0 304 R270
WINDOW 0 32 56 VTop 2
WINDOW 3 0 56 Invisible 2
SYMATTR InstName R2
SYMATTR Value 1k
SYMBOL res 320 304 R270
WINDOW 0 32 56 VTop 2
WINDOW 3 0 56 Invisible 2
SYMATTR InstName R3
SYMATTR Value 1k
SYMBOL res -96 432 R0
WINDOW 3 36 76 Invisible 2
SYMATTR Value 1k
SYMATTR InstName R1
SYMBOL TCLib\\OA_Ideal 272 400 M0
WINDOW 123 -176 48 Invisible 0
WINDOW 3 -176 32 Invisible 0
SYMATTR Value2 GBWP=1Meg
SYMATTR InstName U2
SYMBOL voltage -160 0 R0
SYMATTR InstName V1
SYMATTR Value ""
SYMBOL voltage 528 512 R0
SYMATTR InstName V2
SYMATTR Value ""
