Version 4
SHEET 1 1280 680
WIRE 928 -32 720 -32
WIRE 1200 -32 1008 -32
WIRE 384 96 224 96
WIRE 560 96 464 96
WIRE 720 96 720 -32
WIRE 720 96 560 96
WIRE 848 96 720 96
WIRE 1200 128 1200 -32
WIRE 1200 128 960 128
WIRE 1232 128 1200 128
WIRE 224 144 224 96
WIRE 848 160 720 160
WIRE 224 288 224 224
WIRE 720 336 720 160
WIRE 384 352 224 352
WIRE 560 352 560 96
WIRE 560 352 464 352
WIRE 224 400 224 352
WIRE 224 544 224 480
FLAG 1232 128 Vo
FLAG 720 336 0
FLAG 224 288 0
FLAG 224 544 0
SYMBOL voltage 224 128 R0
SYMATTR InstName V1
SYMATTR Value ""
SYMBOL res 368 80 M90
WINDOW 0 3 56 VBottom 2
WINDOW 3 27 56 VTop 2
SYMATTR InstName R1
SYMATTR Value 10k
SYMBOL res 368 336 M90
WINDOW 0 3 56 VBottom 2
WINDOW 3 27 56 VTop 2
SYMATTR InstName R2
SYMATTR Value 10k
SYMBOL res 912 -48 M90
WINDOW 0 3 56 VBottom 2
WINDOW 3 27 56 VTop 2
SYMATTR InstName R3
SYMATTR Value 100k
SYMBOL TCLib\\OA_Ideal 1040 80 R0
WINDOW 0 -326 7 Left 2
SYMATTR InstName .
SYMATTR Value ""
SYMATTR Value2 ""
SYMBOL voltage 224 384 R0
SYMATTR InstName V2
SYMATTR Value ""
