Version 4
SHEET 1 9348 6404
WIRE 2000 1040 1920 1040
WIRE 2160 1040 2080 1040
WIRE 1760 1152 1664 1152
WIRE 1920 1152 1920 1040
WIRE 1920 1152 1840 1152
WIRE 1984 1152 1920 1152
WIRE 2160 1184 2160 1040
WIRE 2160 1184 2096 1184
WIRE 2256 1184 2160 1184
WIRE 1664 1216 1664 1152
WIRE 1984 1216 1920 1216
WIRE 2256 1232 2256 1184
WIRE 1664 1360 1664 1296
WIRE 1920 1360 1920 1216
WIRE 2256 1360 2256 1312
FLAG 1920 1360 0
FLAG 2256 1360 0
FLAG 1664 1360 0
SYMBOL TCLib\\OA_Ideal 2176 1136 R0
WINDOW 3 -176 32 Invisible 0
WINDOW 123 -176 48 Invisible 0
SYMATTR InstName U1
SYMBOL res 1984 1024 M90
WINDOW 0 4 56 VBottom 2
WINDOW 3 55 56 VBottom 2
SYMATTR InstName R2
SYMATTR Value 4k
SYMBOL res 1744 1136 M90
WINDOW 0 4 56 VBottom 2
WINDOW 3 54 58 VBottom 2
SYMATTR InstName R1
SYMATTR Value 1k
SYMBOL voltage 1664 1200 M0
WINDOW 3 24 96 Invisible 2
SYMATTR InstName Vi
SYMBOL res 2240 1216 R0
WINDOW 3 36 76 Invisible 2
SYMATTR InstName RL
RECTANGLE Normal 2336 1408 1600 960 2
