Version 4
SHEET 1 9348 6404
WIRE 1104 1808 720 1808
WIRE 1504 1808 1184 1808
WIRE 720 1952 720 1808
WIRE 1024 1952 720 1952
WIRE 1312 1984 1136 1984
WIRE 1024 2016 928 2016
WIRE 1504 2016 1504 1808
WIRE 1504 2016 1424 2016
WIRE 1312 2048 1232 2048
WIRE 720 2080 720 1952
WIRE 928 2080 928 2016
WIRE 720 2224 720 2160
WIRE 928 2224 928 2160
WIRE 1232 2224 1232 2048
FLAG 928 2224 0
FLAG 720 2224 0
FLAG 1232 2224 0
SYMBOL TCLib\\OA_Ideal 1504 2064 M180
WINDOW 3 -176 32 Invisible 0
WINDOW 123 -176 48 Invisible 0
SYMATTR InstName U2
SYMBOL TCLib\\OA_Ideal 1216 1936 R0
WINDOW 3 -176 32 Invisible 0
WINDOW 123 -176 48 Invisible 0
WINDOW 0 -113 16 Left 2
SYMATTR InstName U1
SYMBOL voltage 928 2064 M0
WINDOW 3 24 96 Invisible 2
SYMATTR InstName Vi
SYMBOL res 704 2064 R0
SYMATTR InstName R1
SYMATTR Value 10k
SYMBOL res 1200 1792 R90
WINDOW 0 2 56 VBottom 2
WINDOW 3 27 56 VTop 2
SYMATTR InstName R2
SYMATTR Value 100k
RECTANGLE Normal 1520 2256 656 1760 2
