Version 4
SHEET 1 9348 6404
WIRE 3840 1792 3584 1792
WIRE 4240 1792 3920 1792
WIRE 3424 1936 3344 1936
WIRE 3584 1936 3584 1792
WIRE 3584 1936 3504 1936
WIRE 3648 1936 3584 1936
WIRE 3840 1968 3760 1968
WIRE 4064 1968 3920 1968
WIRE 3648 2000 3584 2000
WIRE 4240 2000 4240 1792
WIRE 4240 2000 4176 2000
WIRE 4368 2000 4240 2000
WIRE 3344 2016 3344 1936
WIRE 4064 2032 4000 2032
WIRE 4368 2032 4368 2000
WIRE 3344 2144 3344 2096
WIRE 3584 2144 3584 2000
WIRE 4000 2144 4000 2032
WIRE 4368 2144 4368 2112
FLAG 3344 2144 0
FLAG 3584 2144 0
FLAG 4000 2144 0
FLAG 4368 2144 0
SYMBOL TCLib\\OA_Ideal 4256 2048 M180
WINDOW 3 -176 32 Invisible 0
WINDOW 123 -176 48 Invisible 0
SYMATTR InstName U2
SYMBOL TCLib\\OA_Ideal 3840 1920 R0
WINDOW 3 -176 32 Invisible 0
WINDOW 123 -176 48 Invisible 0
WINDOW 0 -113 16 Left 2
SYMATTR InstName U1
SYMBOL voltage 3344 2000 M0
WINDOW 3 24 96 Invisible 2
SYMATTR InstName Vi
SYMBOL res 3408 1920 M90
WINDOW 0 2 56 VBottom 2
WINDOW 3 27 56 VTop 2
SYMATTR InstName R1
SYMATTR Value 50k
SYMBOL res 3824 1776 M90
WINDOW 0 2 56 VBottom 2
WINDOW 3 27 56 VTop 2
SYMATTR InstName R2
SYMATTR Value 60k
SYMBOL res 4352 2016 R0
SYMATTR InstName RL
SYMATTR Value 100
SYMBOL res 3936 1952 R90
WINDOW 0 2 56 VBottom 2
WINDOW 3 27 56 VTop 2
SYMATTR InstName Ra
SYMATTR Value 175k
SYMBOL TCLib\\Special\\arrow_curve 4416 2016 R0
SYMATTR Value Vo
SYMATTR InstName X1
RECTANGLE Normal 4512 2176 3264 1664 2
