Version 4
SHEET 1 9348 6404
WIRE 2960 1056 2880 1056
WIRE 3120 1056 3040 1056
WIRE 2720 1168 2624 1168
WIRE 2880 1168 2880 1056
WIRE 2880 1168 2800 1168
WIRE 2944 1168 2880 1168
WIRE 3120 1200 3120 1056
WIRE 3120 1200 3056 1200
WIRE 3216 1200 3120 1200
WIRE 2624 1232 2624 1168
WIRE 2944 1232 2880 1232
WIRE 3216 1248 3216 1200
WIRE 2624 1376 2624 1312
WIRE 2880 1376 2880 1232
WIRE 3216 1376 3216 1328
FLAG 2880 1376 0
FLAG 3216 1376 0
FLAG 2624 1376 0
SYMBOL TCLib\\OA_Ideal 3136 1152 R0
WINDOW 3 -176 32 Invisible 0
WINDOW 123 -176 48 Invisible 0
SYMATTR InstName U1
SYMBOL res 2944 1040 M90
WINDOW 0 4 56 VBottom 2
WINDOW 3 55 56 VBottom 2
SYMATTR InstName R2
SYMATTR Value 60k
SYMBOL res 2704 1152 M90
WINDOW 0 4 56 VBottom 2
WINDOW 3 54 58 VBottom 2
SYMATTR InstName R1
SYMATTR Value 40k
SYMBOL voltage 2624 1216 M0
WINDOW 3 24 96 Invisible 2
SYMATTR InstName Vi
SYMBOL res 3200 1232 R0
WINDOW 3 36 76 Invisible 2
SYMATTR InstName RL
RECTANGLE Normal 3280 1440 2560 992 2
