Version 4
SHEET 1 9348 6404
WIRE 944 1056 864 1056
WIRE 1104 1056 1024 1056
WIRE 704 1168 608 1168
WIRE 864 1168 864 1056
WIRE 864 1168 784 1168
WIRE 928 1168 864 1168
WIRE 1104 1200 1104 1056
WIRE 1104 1200 1040 1200
WIRE 1200 1200 1104 1200
WIRE 928 1232 864 1232
WIRE 1200 1232 1200 1200
WIRE 864 1264 864 1232
WIRE 608 1376 608 1168
WIRE 864 1376 864 1344
WIRE 1200 1376 1200 1312
FLAG 864 1376 0
FLAG 1200 1376 0
FLAG 608 1376 0
SYMBOL TCLib\\OA_Ideal 1120 1152 R0
WINDOW 3 -176 32 Invisible 0
WINDOW 123 -176 48 Invisible 0
SYMATTR InstName U1
SYMBOL res 1040 1040 R90
WINDOW 0 4 56 VBottom 2
WINDOW 3 55 56 VBottom 2
SYMATTR InstName R2
SYMATTR Value 2k
SYMBOL res 800 1152 R90
WINDOW 0 4 56 VBottom 2
WINDOW 3 54 58 VBottom 2
SYMATTR InstName R1
SYMATTR Value 1k
SYMBOL voltage 864 1248 M0
WINDOW 3 24 96 Invisible 2
SYMATTR InstName Vi
SYMBOL res 1184 1216 R0
WINDOW 3 36 76 Invisible 2
SYMATTR InstName RL
RECTANGLE Normal 1264 1424 576 1008 2
