Version 4
SHEET 1 1456 680
WIRE 624 -304 288 -304
WIRE 1040 -304 704 -304
WIRE 144 -144 80 -144
WIRE 288 -144 288 -304
WIRE 288 -144 224 -144
WIRE 448 -144 288 -144
WIRE 672 -144 528 -144
WIRE 1040 -144 1040 -304
WIRE 1168 -144 1040 -144
WIRE 1360 -144 1248 -144
WIRE 80 -32 80 -144
WIRE 288 32 288 -144
WIRE 384 32 288 32
WIRE 672 64 672 -144
WIRE 672 64 496 64
WIRE 816 64 672 64
WIRE 1040 64 1040 -144
WIRE 1040 64 896 64
WIRE 1184 64 1040 64
WIRE 384 96 80 96
WIRE 1360 96 1360 -144
WIRE 1360 96 1296 96
WIRE 1392 96 1360 96
WIRE 1184 128 1040 128
WIRE 80 176 80 96
WIRE 1040 192 1040 128
WIRE 80 352 80 256
WIRE 1040 352 1040 272
FLAG 80 -32 0
FLAG 80 352 0
FLAG 1040 352 0
FLAG 1392 96 Vo
SYMBOL voltage 80 160 R0
SYMATTR InstName V1
SYMATTR Value ""
SYMBOL TCLib\\OA_Ideal 576 16 R0
SYMATTR InstName U1
SYMATTR Value ""
SYMATTR Value2 ""
SYMBOL res 544 -160 R90
WINDOW 0 3 56 VBottom 2
WINDOW 3 27 56 VTop 2
SYMATTR InstName R2
SYMATTR Value ""
SYMBOL res 240 -160 R90
WINDOW 0 3 56 VBottom 2
WINDOW 3 28 56 VTop 2
SYMATTR InstName R1
SYMATTR Value ""
SYMBOL res 608 -320 M90
WINDOW 0 3 56 VBottom 2
WINDOW 3 27 56 VTop 2
SYMATTR InstName R5
SYMATTR Value ""
SYMBOL res 800 48 M90
WINDOW 0 3 56 VBottom 2
WINDOW 3 27 56 VTop 2
SYMATTR InstName R3
SYMATTR Value ""
SYMBOL res 1152 -160 M90
WINDOW 0 3 56 VBottom 2
WINDOW 3 27 56 VTop 2
SYMATTR InstName R4
SYMATTR Value ""
SYMBOL TCLib\\OA_Ideal 1376 48 R0
SYMATTR InstName U2
SYMATTR Value ""
SYMATTR Value2 ""
SYMBOL voltage 1040 176 R0
SYMATTR InstName V2
SYMATTR Value ""
