Version 4
SHEET 1 880 692
WIRE 160 -48 96 -48
WIRE 304 -48 240 -48
WIRE -32 48 -80 48
WIRE 96 48 96 -48
WIRE 96 48 48 48
WIRE 144 48 96 48
WIRE 304 80 304 -48
WIRE 304 80 256 80
WIRE 144 112 96 112
WIRE 96 176 96 112
WIRE 304 176 304 80
WIRE -80 320 -80 48
WIRE 144 320 -80 320
WIRE 304 352 304 256
WIRE 304 352 256 352
WIRE 144 384 96 384
WIRE -80 448 -80 320
WIRE 96 464 96 384
WIRE 176 464 96 464
WIRE 304 464 304 352
WIRE 304 464 256 464
WIRE 96 512 96 464
WIRE -80 640 -80 528
WIRE 96 640 96 592
FLAG 96 176 0
FLAG 96 640 0
FLAG -80 640 0
SYMBOL TCLib\\OA_Ideal 336 32 R0
WINDOW 0 -135 95 Left 2
WINDOW 3 145 557 Invisible 0
WINDOW 123 148 599 Invisible 0
SYMATTR InstName U1
SYMBOL TCLib\\OA_Ideal 336 400 M180
WINDOW 0 -133 95 Left 2
WINDOW 3 152 -256 Invisible 0
WINDOW 123 150 -208 Invisible 0
SYMATTR InstName U2
SYMBOL voltage -80 432 R0
WINDOW 3 610 101 Invisible 2
SYMATTR InstName Vi
SYMBOL res -48 64 R270
WINDOW 0 -433 540 Invisible 2
WINDOW 3 3 56 VBottom 2
SYMATTR InstName R1
SYMBOL res 144 -32 R270
WINDOW 0 -601 351 Invisible 2
WINDOW 3 3 56 VBottom 2
SYMATTR InstName R2
SYMATTR Value kR
SYMBOL res 112 608 R180
WINDOW 0 36 59 Left 2
WINDOW 3 36 40 Invisible 2
SYMATTR InstName R
SYMATTR Value ""
SYMBOL res 160 480 R270
WINDOW 0 -53 332 Invisible 2
WINDOW 3 3 56 VBottom 2
SYMATTR InstName R4
SYMATTR Value (k-1)R
SYMBOL res 320 272 R180
WINDOW 0 -189 -183 Invisible 2
WINDOW 3 37 58 Left 2
SYMATTR InstName R5
SYMATTR Value RL
SYMBOL TCLib\\Special\\arrow_curve 304 272 M180
SYMATTR Value Vo
SYMATTR InstName X1
