Version 4
SHEET 1 880 680
WIRE 608 -80 480 -80
WIRE 784 -80 672 -80
WIRE 304 16 208 16
WIRE 480 16 480 -80
WIRE 480 16 384 16
WIRE 544 16 480 16
WIRE 784 48 784 -80
WIRE 784 48 656 48
WIRE 816 48 784 48
WIRE 208 64 208 16
WIRE 544 80 464 80
WIRE 208 192 208 144
WIRE 464 192 464 80
FLAG 464 192 0
FLAG 208 192 0
FLAG 816 48 Vo
SYMBOL voltage 208 48 R0
SYMATTR InstName Vi
SYMATTR Value ""
SYMBOL res 288 0 M90
WINDOW 0 3 56 VBottom 2
WINDOW 3 27 56 VTop 2
SYMATTR InstName R
SYMATTR Value ""
SYMBOL TCLib\\OA_Ideal 736 0 R0
WINDOW 0 -259 7 Left 2
SYMATTR InstName .
SYMATTR Value ""
SYMATTR Value2 ""
SYMBOL cap 608 -96 M90
WINDOW 0 0 32 VBottom 2
WINDOW 3 32 32 VTop 2
SYMATTR InstName C
SYMATTR Value ""
