Version 4
SHEET 1 1104 680
WIRE -96 112 -224 112
WIRE 112 112 -16 112
WIRE -560 208 -656 208
WIRE -384 208 -480 208
WIRE -224 208 -224 112
WIRE -224 208 -384 208
WIRE -128 208 -224 208
WIRE 112 240 112 112
WIRE 112 240 -16 240
WIRE 144 240 112 240
WIRE -128 272 -224 272
WIRE -656 288 -656 208
WIRE -384 288 -384 208
WIRE -656 448 -656 368
WIRE -384 448 -384 368
WIRE -224 448 -224 272
FLAG -224 448 0
FLAG -656 448 0
FLAG 144 240 Vo
FLAG -384 448 0
SYMBOL res -112 96 M90
WINDOW 0 3 56 VBottom 2
WINDOW 3 27 56 VTop 2
SYMATTR InstName R3
SYMATTR Value 3k
SYMBOL res -576 192 M90
WINDOW 0 3 56 VBottom 2
WINDOW 3 27 56 VTop 2
SYMATTR InstName R1
SYMATTR Value 1k
SYMBOL voltage -656 272 R0
WINDOW 3 24 44 Left 2
WINDOW 123 0 0 Left 0
WINDOW 39 0 0 Left 0
SYMATTR Value ""
SYMATTR InstName Vi
SYMBOL res -400 272 R0
SYMATTR InstName R2
SYMATTR Value 600
SYMBOL TCLib\\OA_Ideal 64 192 R0
WINDOW 0 48 42 Left 2
WINDOW 123 -179 47 Left 0
SYMATTR InstName .
SYMATTR Value2 ""
SYMATTR Value ""
