Version 4
SHEET 1 880 680
WIRE -160 -80 -240 -80
WIRE 16 -80 -80 -80
WIRE 112 -80 16 -80
WIRE 272 -80 192 -80
WIRE 608 -80 272 -80
WIRE -240 0 -240 -80
WIRE 16 16 16 -80
WIRE 80 16 16 16
WIRE 608 32 608 -80
WIRE 272 48 272 -80
WIRE 272 48 192 48
WIRE 80 80 16 80
WIRE 528 128 320 128
WIRE -240 160 -240 80
WIRE 528 208 528 128
WIRE 528 208 480 208
WIRE -144 240 -240 240
WIRE 16 240 16 80
WIRE 16 240 -64 240
WIRE 128 240 16 240
WIRE 320 240 320 128
WIRE 320 240 208 240
WIRE 368 240 320 240
WIRE 608 272 608 112
WIRE 608 272 480 272
WIRE -240 320 -240 240
WIRE 608 336 608 272
WIRE -240 480 -240 400
WIRE 608 480 608 416
FLAG -240 480 0
FLAG -240 160 0
FLAG 608 480 0
SYMBOL TCLib\\OA_Ideal 288 192 M0
WINDOW 3 -176 32 Invisible 0
WINDOW 123 -176 48 Invisible 0
SYMATTR InstName U1
SYMBOL TCLib\\OA_Ideal 272 96 M180
WINDOW 3 -176 32 Invisible 0
WINDOW 123 -176 48 Invisible 0
SYMATTR InstName U2
SYMBOL res -160 256 R270
WINDOW 0 27 56 VTop 2
WINDOW 3 3 56 Invisible 2
SYMATTR InstName R1
SYMBOL res 112 256 R270
WINDOW 0 27 56 VTop 2
WINDOW 3 3 56 Invisible 2
SYMATTR InstName R2
SYMBOL res -176 -64 R270
WINDOW 0 27 56 VTop 2
WINDOW 3 3 56 Invisible 2
SYMATTR InstName R3
SYMBOL res 96 -64 R270
WINDOW 0 27 56 VTop 2
WINDOW 3 3 56 Invisible 2
SYMATTR InstName R4
SYMBOL res 592 16 R0
WINDOW 3 36 76 Invisible 2
SYMATTR InstName R5
SYMBOL res 592 320 R0
WINDOW 3 36 76 Invisible 2
SYMATTR InstName RL
SYMBOL voltage -240 -16 R0
WINDOW 3 24 96 Invisible 2
SYMATTR InstName V1
SYMBOL voltage -240 304 R0
WINDOW 3 24 96 Invisible 2
SYMATTR InstName V2
SYMBOL TCLib\\Special\\arrow 576 352 R90
WINDOW 3 25 26 VCenter 2
SYMATTR Value Io
SYMATTR InstName X1
