Version 4
SHEET 1 880 680
WIRE 752 -112 -880 -112
WIRE -880 32 -880 -112
WIRE -784 32 -880 32
WIRE -608 64 -672 64
WIRE 0 64 -608 64
WIRE 144 64 0 64
WIRE 320 64 224 64
WIRE 448 64 320 64
WIRE -784 96 -880 96
WIRE 320 128 320 64
WIRE 448 160 448 64
WIRE 544 160 448 160
WIRE 752 192 752 -112
WIRE 752 192 656 192
WIRE 0 224 0 64
WIRE 544 224 448 224
WIRE 320 256 320 208
WIRE -880 336 -880 96
WIRE -608 336 -608 64
WIRE -560 336 -608 336
WIRE -432 336 -480 336
WIRE -336 336 -432 336
WIRE -160 336 -256 336
WIRE -432 448 -432 336
WIRE -352 448 -432 448
WIRE -160 480 -160 336
WIRE -160 480 -240 480
WIRE 0 480 0 304
WIRE 0 480 -160 480
WIRE 192 480 0 480
WIRE 448 480 448 224
WIRE 448 480 272 480
WIRE 576 480 448 480
WIRE 752 480 752 192
WIRE 752 480 656 480
WIRE -352 512 -432 512
WIRE -880 624 -880 416
WIRE -432 624 -432 512
FLAG -432 624 0
FLAG -880 624 0
FLAG 320 256 0
SYMBOL TCLib\\OA_Ideal 736 240 M180
WINDOW 3 -176 32 Invisible 0
WINDOW 123 -176 48 Invisible 0
SYMATTR InstName U1
SYMBOL TCLib\\OA_Ideal -160 432 R0
WINDOW 3 -176 32 Invisible 0
WINDOW 123 -176 48 Invisible 0
SYMATTR InstName U2
SYMBOL TCLib\\OA_Ideal -592 16 R0
WINDOW 3 -176 32 Invisible 0
WINDOW 123 -176 48 Invisible 0
SYMATTR InstName U3
SYMBOL res -576 352 R270
WINDOW 0 27 56 VTop 2
WINDOW 3 3 56 VBottom 2
SYMATTR InstName R5
SYMATTR Value 1k
SYMBOL res -352 352 R270
WINDOW 0 27 56 VTop 2
WINDOW 3 3 56 VBottom 2
SYMATTR InstName R6
SYMATTR Value 1k
SYMBOL res 176 496 R270
WINDOW 0 27 56 VTop 2
WINDOW 3 3 56 VBottom 2
SYMATTR InstName R3
SYMATTR Value 100k
SYMBOL res 560 496 R270
WINDOW 0 27 56 VTop 2
WINDOW 3 3 56 VBottom 2
SYMATTR InstName R4
SYMATTR Value 100k
SYMBOL res 128 80 R270
WINDOW 0 27 56 VTop 2
WINDOW 3 3 56 VBottom 2
SYMATTR InstName R1
SYMATTR Value 100k
SYMBOL res 304 112 R0
SYMATTR InstName R2
SYMATTR Value 100k
SYMBOL voltage -880 320 R0
WINDOW 3 24 96 Invisible 2
SYMATTR InstName Vi
SYMBOL res -16 208 R0
SYMATTR InstName RL
SYMATTR Value 10k
SYMBOL TCLib\\Special\\arrow_curve -16 208 M0
SYMATTR Value Vo
SYMATTR InstName X1
