Version 4
SHEET 1 880 680
WIRE -112 -48 -224 -48
WIRE 80 -48 -32 -48
WIRE 288 -48 80 -48
WIRE 528 -16 400 -16
WIRE 560 -16 528 -16
WIRE 288 16 256 16
WIRE -224 80 -224 -48
WIRE 80 80 80 -48
WIRE 256 96 256 16
WIRE 352 96 256 96
WIRE 528 96 528 -16
WIRE 528 96 432 96
WIRE 256 160 256 96
WIRE -224 288 -224 160
WIRE 80 288 80 160
WIRE 256 288 256 240
FLAG -224 288 0
FLAG 80 288 0
FLAG 256 288 0
FLAG 560 -16 Vo
SYMBOL TCLib\\OA_Ideal 480 32 M180
WINDOW 0 -228 -58 Left 2
WINDOW 123 -179 47 Left 0
SYMATTR InstName .
SYMATTR Value2 ""
SYMATTR Value ""
SYMBOL res -128 -64 M90
WINDOW 0 3 56 VBottom 2
WINDOW 3 27 56 VTop 2
SYMATTR InstName R1
SYMATTR Value 1k
SYMBOL voltage -224 64 R0
WINDOW 3 24 44 Left 2
WINDOW 123 0 0 Left 0
WINDOW 39 0 0 Left 0
SYMATTR Value ""
SYMATTR InstName Vi
SYMBOL res 64 64 R0
SYMATTR InstName R2
SYMATTR Value 1k
SYMBOL res 336 80 M90
WINDOW 0 3 56 VBottom 2
WINDOW 3 27 56 VTop 2
SYMATTR InstName R3
SYMATTR Value 3k
SYMBOL res 240 144 R0
SYMATTR InstName R4
SYMATTR Value 600
