Version 4
SHEET 1 880 680
WIRE 160 32 48 32
WIRE 352 32 240 32
WIRE 480 32 352 32
WIRE 672 32 560 32
WIRE 352 128 352 32
WIRE 432 128 352 128
WIRE 48 160 48 32
WIRE 48 160 -96 160
WIRE 672 160 672 32
WIRE 672 160 544 160
WIRE 704 160 672 160
WIRE 432 192 352 192
WIRE -96 208 -96 160
WIRE 48 288 48 160
WIRE 160 288 48 288
WIRE 352 288 352 192
WIRE 352 288 240 288
WIRE 480 288 352 288
WIRE 672 288 560 288
WIRE -96 336 -96 288
WIRE 672 336 672 288
FLAG 672 336 0
FLAG -96 336 0
FLAG 704 160 Vo
SYMBOL current -96 288 R180
WINDOW 0 24 80 Left 2
WINDOW 3 24 0 Left 2
SYMATTR InstName Is
SYMATTR Value 1mA
SYMBOL TCLib\\OA_Ideal 624 112 R0
WINDOW 0 -278 167 Left 2
SYMATTR InstName .
SYMATTR Value ""
SYMATTR Value2 ""
SYMBOL res 144 16 M90
WINDOW 0 3 56 VBottom 2
WINDOW 3 27 56 VTop 2
SYMATTR InstName R1
SYMATTR Value 3k
SYMBOL res 464 16 M90
WINDOW 0 3 56 VBottom 2
WINDOW 3 27 56 VTop 2
SYMATTR InstName R2
SYMATTR Value 4k
SYMBOL res 144 272 M90
WINDOW 0 3 56 VBottom 2
WINDOW 3 27 56 VTop 2
SYMATTR InstName R3
SYMATTR Value 2k
SYMBOL res 464 304 R270
WINDOW 0 27 56 VTop 2
WINDOW 3 3 56 VBottom 2
SYMATTR InstName R4
SYMATTR Value 1k
