Version 4
SHEET 1 1120 680
WIRE 336 80 -16 80
WIRE 880 96 784 96
WIRE 1056 96 960 96
WIRE -16 160 -16 80
WIRE 128 160 -16 160
WIRE 336 192 336 80
WIRE 336 192 240 192
WIRE 352 192 336 192
WIRE 640 208 576 208
WIRE 784 208 784 96
WIRE 784 208 720 208
WIRE 880 208 784 208
WIRE 128 224 -16 224
WIRE 1056 240 1056 96
WIRE 1056 240 992 240
WIRE 1072 240 1056 240
WIRE -16 256 -16 224
WIRE 576 256 576 208
WIRE 880 272 784 272
WIRE -16 368 -16 336
WIRE 576 368 576 336
WIRE 784 368 784 272
FLAG -16 368 0
FLAG 784 368 0
FLAG 576 368 0
FLAG 352 192 Vo
FLAG 1072 240 Vo
SYMBOL TCLib\\OA_Ideal 320 144 R0
SYMATTR InstName TL082
SYMATTR Value ""
SYMATTR Value2 ""
SYMBOL voltage -16 240 R0
SYMATTR InstName Vi
SYMATTR Value ""
SYMBOL TCLib\\OA_Ideal 1072 192 R0
SYMATTR InstName TL082
SYMATTR Value ""
SYMATTR Value2 ""
SYMBOL voltage 576 240 R0
SYMATTR InstName Vi
SYMATTR Value ""
SYMBOL res 624 192 M90
WINDOW 0 3 56 VBottom 2
WINDOW 3 27 56 VTop 2
SYMATTR InstName R
SYMATTR Value 1k
SYMBOL res 864 80 M90
WINDOW 0 3 56 VBottom 2
WINDOW 3 27 56 VTop 2
SYMATTR InstName R
SYMATTR Value 1k
TEXT 160 440 Left 2 ;(a)
TEXT 832 440 Left 2 ;(b)
