Version 4
SHEET 1 880 900
WIRE 160 -96 48 -96
WIRE 368 -96 240 -96
WIRE 496 -96 368 -96
WIRE 704 -96 576 -96
WIRE 48 -32 48 -96
WIRE 368 32 368 -96
WIRE 448 32 368 32
WIRE 704 64 704 -96
WIRE 704 64 560 64
WIRE 736 64 704 64
WIRE 208 96 48 96
WIRE 448 96 288 96
WIRE 48 176 48 96
WIRE 48 304 48 256
FLAG 736 64 Vo
FLAG 48 304 0
FLAG 48 -32 0
SYMBOL voltage 48 160 R0
WINDOW 3 16 97 Left 2
WINDOW 123 0 0 Left 0
WINDOW 39 0 0 Left 0
SYMATTR InstName Vi
SYMATTR Value 10mV
SYMBOL res 304 80 R90
WINDOW 0 3 56 VBottom 2
WINDOW 3 27 56 VTop 2
SYMATTR InstName Rg
SYMATTR Value 5k
SYMBOL TCLib\\OA_Ideal 640 16 R0
SYMATTR InstName U1
SYMATTR Value ""
SYMATTR Value2 ""
SYMBOL res 144 -112 M90
WINDOW 0 3 56 VBottom 2
WINDOW 3 27 56 VTop 2
SYMATTR InstName Ra
SYMATTR Value 1k
SYMBOL res 480 -112 M90
WINDOW 0 3 56 VBottom 2
WINDOW 3 27 56 VTop 2
SYMATTR InstName Rb
SYMATTR Value 99k
