Version 4
SHEET 1 880 680
WIRE -80 48 -240 48
WIRE 0 48 -80 48
WIRE 160 48 80 48
WIRE 256 48 160 48
WIRE 416 48 336 48
WIRE 160 144 160 48
WIRE 208 144 160 144
WIRE -240 160 -240 48
WIRE -80 160 -80 48
WIRE 416 176 416 48
WIRE 416 176 320 176
WIRE 432 176 416 176
WIRE 208 208 -32 208
WIRE -240 304 -240 240
WIRE -80 304 -80 240
FLAG -80 304 0
FLAG -240 304 0
FLAG 432 176 Vo
SYMBOL TCLib\\OA_Ideal 400 128 R0
WINDOW 0 -464 377 Invisible 2
WINDOW 3 -466 351 Invisible 0
WINDOW 123 -465 328 Invisible 0
SYMATTR InstName U1
SYMBOL TCLib\\pot -96 144 R0
WINDOW 0 38 19 Left 0
WINDOW 3 38 21 Invisible 1
SYMATTR InstName R3
SYMATTR Value ""
SYMATTR Value2 cur=k
SYMBOL res -16 64 R270
WINDOW 0 27 56 VTop 2
WINDOW 3 3 56 VBottom 2
SYMATTR InstName R1
SYMATTR Value ""
SYMBOL res 240 64 R270
WINDOW 0 27 56 VTop 2
WINDOW 3 3 56 VBottom 2
SYMATTR InstName R2
SYMATTR Value ""
SYMBOL voltage -240 144 R0
WINDOW 3 161 355 Invisible 2
SYMATTR InstName Vi
