Version 4
SHEET 1 8748 12036
WIRE 1792 1136 1792 1104
WIRE 1792 1136 1616 1136
WIRE 1616 1184 1616 1136
WIRE 1792 1264 1792 1136
WIRE 1616 1312 1616 1264
WIRE 1728 1312 1616 1312
WIRE 1616 1376 1616 1312
WIRE 1792 1472 1792 1360
WIRE 1968 1472 1792 1472
WIRE 1616 1504 1616 1440
WIRE 1968 1536 1968 1472
WIRE 1792 1584 1792 1472
WIRE 1616 1632 1616 1568
WIRE 1616 1632 1488 1632
WIRE 1728 1632 1616 1632
WIRE 1488 1680 1488 1632
WIRE 1968 1696 1968 1616
WIRE 1792 1776 1792 1680
WIRE 1488 1808 1488 1760
FLAG 1968 1696 0
FLAG 1488 1808 0
FLAG 1792 1104 15V
FLAG 1792 1776 -15V
SYMBOL pnp 1728 1680 M180
WINDOW 3 84 68 Invisible 2
WINDOW 0 60 48 Left 2
SYMATTR InstName Q2
SYMBOL Misc\\signal 1488 1664 R0
WINDOW 3 24 104 Invisible 2
SYMATTR InstName Vi
SYMBOL res 1952 1520 R0
WINDOW 3 36 68 Left 2
SYMATTR Value 10
SYMATTR InstName RL
SYMBOL TCLib\\Special\\arrow_curve 1984 1520 R0
SYMATTR Value Vo
SYMATTR InstName X11
SYMBOL npn 1728 1264 R0
WINDOW 3 56 68 Invisible 2
SYMATTR InstName Q1
SYMBOL res 1600 1168 R0
WINDOW 3 36 68 Left 2
SYMATTR Value 430
SYMATTR InstName R1
SYMBOL diode 1600 1376 R0
WINDOW 3 24 64 Invisible 2
SYMATTR InstName D1
SYMBOL diode 1600 1504 R0
WINDOW 3 24 64 Invisible 2
SYMATTR InstName D2
RECTANGLE Normal 2096 1840 1408 1056 2
