Version 4
SHEET 1 8748 12036
WIRE 4256 624 4080 624
WIRE 4720 624 4256 624
WIRE 4928 624 4720 624
WIRE 4720 688 4720 624
WIRE 4256 736 4256 624
WIRE 4928 752 4928 624
WIRE 4720 800 4720 768
WIRE 4864 800 4720 800
WIRE 4720 880 4720 800
WIRE 4928 896 4928 848
WIRE 4256 912 4256 816
WIRE 4256 912 4176 912
WIRE 4336 912 4256 912
WIRE 4176 976 4176 912
WIRE 4336 976 4336 912
WIRE 4112 1024 4032 1024
WIRE 4480 1024 4400 1024
WIRE 4560 1024 4480 1024
WIRE 4704 1024 4640 1024
WIRE 4928 1024 4928 976
WIRE 4928 1024 4736 1024
WIRE 5104 1024 4928 1024
WIRE 4032 1056 4032 1024
WIRE 4480 1056 4480 1024
WIRE 4928 1072 4928 1024
WIRE 4720 1088 4720 944
WIRE 5104 1120 5104 1024
WIRE 4480 1168 4480 1136
WIRE 4032 1184 4032 1136
WIRE 4928 1184 4928 1152
WIRE 4624 1232 4592 1232
WIRE 4720 1232 4720 1152
WIRE 4720 1232 4688 1232
WIRE 4864 1232 4720 1232
WIRE 4480 1264 4480 1232
WIRE 4720 1280 4720 1232
WIRE 5104 1280 5104 1200
WIRE 4176 1328 4176 1072
WIRE 4592 1328 4592 1232
WIRE 4592 1328 4176 1328
WIRE 4656 1328 4592 1328
WIRE 4176 1376 4176 1328
WIRE 4176 1504 4176 1456
WIRE 4176 1504 4080 1504
WIRE 4336 1504 4336 1072
WIRE 4336 1504 4176 1504
WIRE 4720 1504 4720 1376
WIRE 4720 1504 4336 1504
WIRE 4928 1504 4928 1280
WIRE 4928 1504 4720 1504
FLAG 4480 1264 0
FLAG 5104 1280 0
FLAG 4032 1184 0
FLAG 4080 624 8V
FLAG 4080 1504 -8V
SYMBOL Misc\\signal 4032 1040 R0
WINDOW 0 -46 4 Left 2
WINDOW 3 24 104 Invisible 2
SYMATTR InstName Vi
SYMBOL pnp 4112 1072 M180
WINDOW 3 84 68 Invisible 2
SYMATTR InstName Q3
SYMBOL pnp 4400 1072 R180
WINDOW 3 84 68 Invisible 2
SYMATTR InstName Q4
SYMBOL current 4256 736 R0
WINDOW 123 0 0 Left 0
WINDOW 39 0 0 Left 0
SYMATTR InstName I1
SYMATTR Value 2m
SYMBOL res 4160 1360 R0
SYMATTR InstName R1
SYMATTR Value 636
SYMBOL res 4464 1040 R0
SYMATTR InstName R2
SYMATTR Value 1k
SYMBOL cap 4464 1168 R0
SYMATTR InstName C1
SYMATTR Value 100µ
SYMBOL res 4656 1008 R90
WINDOW 0 2 56 VBottom 2
WINDOW 3 27 56 VTop 2
SYMATTR InstName R3
SYMATTR Value 20k
SYMBOL diode 4704 880 R0
WINDOW 3 24 64 Invisible 2
SYMATTR InstName D1
SYMBOL diode 4704 1088 R0
WINDOW 3 24 64 Invisible 2
SYMATTR InstName D2
SYMBOL pnp 4864 1280 M180
WINDOW 0 58 51 Left 2
WINDOW 3 84 68 Invisible 2
SYMATTR InstName Q2
SYMBOL npn 4864 752 R0
WINDOW 3 56 68 Invisible 2
SYMATTR InstName Q1
SYMBOL res 5088 1104 R0
SYMATTR InstName RL
SYMATTR Value 8
SYMBOL res 4912 880 R0
SYMATTR InstName Ra
SYMATTR Value 1
SYMBOL res 4912 1056 R0
SYMATTR InstName Rb
SYMATTR Value 1
SYMBOL res 4704 672 R0
SYMATTR InstName R3
SYMATTR Value 60
SYMBOL npn 4656 1280 R0
WINDOW 3 56 68 Invisible 2
SYMATTR InstName Q5
SYMBOL cap 4688 1216 R90
WINDOW 0 0 32 VBottom 2
WINDOW 3 32 32 VTop 2
SYMATTR InstName Cc
SYMATTR Value 10p
SYMBOL TCLib\\Special\\bypass 4704 1024 R0
SYMATTR InstName U4
RECTANGLE Normal 5184 1584 3968 592 2
