Version 4
SHEET 1 7772 18116
WIRE 224 3168 160 3168
WIRE 320 3168 224 3168
WIRE 640 3168 512 3168
WIRE 704 3168 640 3168
WIRE 928 3168 864 3168
WIRE 1344 3168 1120 3168
WIRE 1408 3168 1344 3168
WIRE 640 3216 640 3168
WIRE 1344 3216 1344 3168
WIRE 224 3328 224 3168
WIRE 416 3344 416 3232
WIRE 640 3344 640 3296
WIRE 640 3344 416 3344
WIRE 1344 3360 1344 3296
WIRE 1344 3360 1200 3360
WIRE 640 3392 640 3344
WIRE 1024 3392 1024 3232
WIRE 1056 3392 1024 3392
WIRE 1088 3392 1056 3392
WIRE 1344 3392 1344 3360
WIRE 1248 3424 1200 3424
WIRE 704 3440 688 3440
WIRE 1408 3440 1392 3440
WIRE 640 3488 640 3472
WIRE 704 3488 704 3440
WIRE 704 3488 640 3488
WIRE 1056 3488 1056 3392
WIRE 1248 3488 1248 3424
WIRE 1248 3488 1056 3488
WIRE 1344 3488 1344 3472
WIRE 1408 3488 1408 3440
WIRE 1408 3488 1344 3488
WIRE 224 3536 224 3392
WIRE 640 3536 640 3488
WIRE 1344 3536 1344 3488
FLAG 640 3536 0
FLAG 224 3536 0
FLAG 160 3168 Vi
FLAG 704 3168 Vo
FLAG 1344 3536 0
FLAG 864 3168 Vi
FLAG 1408 3168 Vo
SYMBOL TCLib\\Regulators\\7805 416 3168 R0
WINDOW 0 66 -52 Invisible 0
SYMATTR InstName U1
SYMBOL res 624 3200 R0
SYMATTR InstName R1
SYMATTR Value 300
SYMBOL cap 208 3328 R0
WINDOW 3 24 56 Invisible 2
SYMATTR InstName C1
SYMBOL TCLib\\pot 624 3376 R0
WINDOW 0 38 7 Invisible 0
WINDOW 3 38 21 Left 2
WINDOW 123 38 49 Left 2
SYMATTR InstName U2
SYMATTR Value R2
SYMATTR Value2 1K
SYMBOL TCLib\\Regulators\\7805 1024 3168 R0
WINDOW 0 66 -52 Invisible 0
SYMATTR InstName U1
SYMBOL res 1328 3200 R0
SYMATTR InstName R1
SYMATTR Value 3k
SYMBOL TCLib\\pot 1328 3376 R0
WINDOW 0 38 7 Invisible 0
WINDOW 3 38 21 Left 2
WINDOW 123 38 49 Left 2
SYMATTR InstName U4
SYMATTR Value R2
SYMATTR Value2 10k
SYMBOL TCLib\\OA_Ideal 1008 3440 R180
WINDOW 0 -113 80 Invisible 2
WINDOW 3 -176 32 Invisible 0
WINDOW 123 -176 48 Invisible 0
SYMATTR InstName U5
TEXT 136 3096 Left 2 ;a
TEXT 840 3096 Left 2 ;b
RECTANGLE Normal 1488 3568 112 3056 2
