Version 4
SHEET 1 7772 18116
WIRE 384 1568 96 1568
WIRE 544 1568 384 1568
WIRE 688 1568 544 1568
WIRE 832 1568 688 1568
WIRE 1088 1568 928 1568
WIRE 1280 1568 1088 1568
WIRE 1456 1568 1280 1568
WIRE 688 1616 688 1568
WIRE 1456 1632 1456 1568
WIRE 1088 1664 1088 1568
WIRE 688 1728 688 1696
WIRE 880 1728 880 1632
WIRE 880 1728 688 1728
WIRE 880 1792 880 1728
WIRE 1456 1824 1456 1776
WIRE 1088 1840 1088 1744
WIRE 1088 1840 944 1840
WIRE 544 1936 544 1568
WIRE 704 1936 544 1936
WIRE 880 1936 880 1888
WIRE 880 1936 784 1936
WIRE 1088 1936 1088 1840
WIRE 1280 1936 1280 1568
WIRE 880 1984 880 1936
WIRE 384 2048 384 1568
WIRE 880 2096 880 2048
WIRE 1088 2096 1088 2016
WIRE 384 2208 384 2128
WIRE 384 2208 224 2208
WIRE 544 2208 384 2208
WIRE 224 2240 224 2208
WIRE 544 2240 544 2208
WIRE 160 2288 112 2288
WIRE 1280 2288 1280 2016
WIRE 1280 2288 608 2288
WIRE 112 2352 112 2288
WIRE 1456 2352 1456 2288
WIRE 544 2368 544 2336
WIRE 544 2368 384 2368
WIRE 1280 2368 1280 2288
WIRE 384 2416 384 2368
WIRE 544 2480 544 2368
WIRE 224 2544 224 2336
WIRE 224 2544 96 2544
WIRE 384 2544 384 2496
WIRE 384 2544 224 2544
WIRE 496 2544 384 2544
WIRE 1280 2544 1280 2448
WIRE 1280 2544 592 2544
WIRE 1456 2544 1456 2496
WIRE 1456 2544 1280 2544
FLAG 880 2096 0
FLAG 1088 2096 0
FLAG 112 2352 0
FLAG 96 1568 30V
FLAG 96 2544 -30V
FLAG 1456 1824 0
FLAG 1456 2288 0
SYMBOL npn 832 1632 R270
WINDOW 3 56 68 Invisible 2
SYMATTR InstName Q1
SYMBOL res 672 1600 R0
SYMATTR InstName R1
SYMATTR Value 1k
SYMBOL npn 944 1792 M0
WINDOW 3 56 68 Invisible 2
SYMATTR InstName Q2
SYMBOL zener 896 2048 R180
WINDOW 0 24 64 Left 2
WINDOW 3 24 0 Invisible 2
SYMATTR InstName Dz
SYMATTR Value 1N750
SYMBOL res 688 1920 M90
WINDOW 0 2 56 VBottom 2
WINDOW 3 27 56 VTop 2
SYMATTR InstName R2
SYMATTR Value 2.2k
SYMBOL res 1072 1648 R0
SYMATTR InstName R3
SYMATTR Value 1.2k
SYMBOL res 1072 1920 R0
SYMATTR InstName R4
SYMATTR Value 1k
SYMBOL res 1264 1920 R0
SYMATTR InstName R5
SYMATTR Value 10k
SYMBOL res 1264 2352 R0
SYMATTR InstName R6
SYMATTR Value 10k
SYMBOL res 368 2032 R0
SYMATTR InstName R7
SYMATTR Value 5.6k
SYMBOL res 368 2400 R0
SYMATTR InstName R8
SYMATTR Value 1k
SYMBOL TCLib\\Special\\arrow 1456 1728 R270
WINDOW 3 21 -30 VCenter 2
SYMATTR Value V1
SYMATTR InstName X2
SYMBOL TCLib\\Special\\arrow 1456 2400 M90
WINDOW 3 23 -30 VCenter 2
SYMATTR Value V2
SYMATTR InstName X3
SYMBOL pnp 160 2336 M180
SYMATTR InstName Q3
SYMBOL pnp 608 2336 R180
SYMATTR InstName Q4
SYMBOL pnp 496 2480 M90
SYMATTR InstName Q5
RECTANGLE Normal 1504 2608 0 1504 2
