Version 4
SHEET 1 7772 18116
WIRE 2512 4080 2272 4080
WIRE 2768 4080 2608 4080
WIRE 1456 4224 1328 4224
WIRE 1824 4224 1552 4224
WIRE 2272 4224 2272 4080
WIRE 2400 4224 2272 4224
WIRE 2560 4224 2560 4144
WIRE 2560 4224 2496 4224
WIRE 2608 4224 2560 4224
WIRE 2768 4224 2768 4080
WIRE 2768 4224 2688 4224
WIRE 1328 4400 1328 4224
WIRE 1328 4400 1232 4400
WIRE 1376 4400 1328 4400
WIRE 1504 4400 1504 4288
WIRE 1504 4400 1456 4400
WIRE 1568 4400 1504 4400
WIRE 1824 4400 1824 4224
WIRE 1824 4400 1760 4400
WIRE 1952 4400 1824 4400
WIRE 2272 4400 2272 4224
WIRE 2272 4400 2176 4400
WIRE 2320 4400 2272 4400
WIRE 2448 4400 2448 4288
WIRE 2448 4400 2400 4400
WIRE 2512 4400 2448 4400
WIRE 2768 4400 2768 4224
WIRE 2768 4400 2704 4400
WIRE 2896 4400 2768 4400
WIRE 1952 4496 1952 4400
WIRE 2896 4496 2896 4400
WIRE 1664 4624 1664 4464
WIRE 1952 4624 1952 4576
WIRE 2608 4624 2608 4464
WIRE 2896 4624 2896 4576
FLAG 1232 4400 Vi
FLAG 1952 4624 0
FLAG 1664 4624 0
FLAG 2176 4400 Vi
FLAG 2896 4624 0
FLAG 2608 4624 0
SYMBOL TCLib\\Regulators\\7805 1664 4400 R0
WINDOW 0 66 -52 Invisible 0
SYMATTR InstName U6
SYMBOL res 1968 4480 M0
WINDOW 3 36 76 Invisible 2
SYMATTR InstName RL
SYMBOL TCLib\\Special\\arrow 1872 4384 R0
SYMATTR Value Io
SYMATTR InstName X10
SYMBOL TCLib\\Special\\arrow_curve 1952 4480 R0
SYMATTR Value Vo
SYMATTR InstName X11
SYMBOL res 1472 4384 R90
WINDOW 0 2 56 VBottom 2
WINDOW 3 27 56 VTop 2
SYMATTR InstName Rs
SYMATTR Value 1
SYMBOL npn 2512 4144 R270
WINDOW 3 56 68 Invisible 2
SYMATTR InstName Q3
SYMBOL pnp 1552 4288 M270
WINDOW 3 84 68 Invisible 2
SYMATTR InstName Q1
SYMBOL TCLib\\Regulators\\7805 2608 4400 R0
WINDOW 0 66 -52 Invisible 0
SYMATTR InstName U7
SYMBOL res 2912 4480 M0
WINDOW 3 36 76 Invisible 2
SYMATTR InstName RL
SYMBOL TCLib\\Special\\arrow 2816 4384 R0
SYMATTR Value Io
SYMATTR InstName X12
SYMBOL TCLib\\Special\\arrow_curve 2896 4480 R0
SYMATTR Value Vo
SYMATTR InstName X13
SYMBOL res 2416 4384 R90
WINDOW 0 2 56 VBottom 2
WINDOW 3 27 56 Invisible 2
SYMATTR InstName Rs1
SYMATTR Value 1.4
SYMBOL pnp 2496 4288 M270
WINDOW 3 84 68 Invisible 2
SYMATTR InstName Q2
SYMBOL res 2704 4208 R90
WINDOW 0 2 56 VBottom 2
WINDOW 3 27 56 Invisible 2
SYMATTR InstName Rs2
TEXT 1200 4096 Left 2 ;a
TEXT 2144 4096 Left 2 ;b
RECTANGLE Normal 3008 4656 1136 4000 2
