Version 4
SHEET 1 7772 18116
WIRE 2400 128 2240 128
WIRE 2528 128 2400 128
WIRE 2656 128 2528 128
WIRE 2848 128 2656 128
WIRE 3408 128 2944 128
WIRE 2528 208 2528 128
WIRE 2896 240 2896 192
WIRE 3120 240 2896 240
WIRE 3408 240 3408 128
WIRE 3408 240 3200 240
WIRE 2656 288 2656 128
WIRE 2720 288 2656 288
WIRE 2896 288 2896 240
WIRE 2896 288 2816 288
WIRE 2528 400 2528 288
WIRE 2768 400 2768 352
WIRE 2768 400 2528 400
WIRE 3040 400 2768 400
WIRE 3040 416 3040 400
WIRE 3168 464 3104 464
WIRE 3232 464 3168 464
WIRE 3408 464 3408 240
WIRE 3408 464 3312 464
WIRE 3168 512 3168 464
WIRE 3408 528 3408 464
WIRE 2240 560 2240 128
WIRE 3168 624 3168 592
WIRE 3040 688 3040 512
WIRE 3408 688 3408 608
WIRE 3408 688 3040 688
WIRE 2768 768 2768 400
WIRE 3040 816 2832 816
WIRE 3184 816 3040 816
WIRE 3408 816 3408 688
WIRE 3408 816 3264 816
WIRE 2400 912 2400 128
WIRE 2528 912 2400 912
WIRE 2768 912 2768 864
WIRE 2768 912 2608 912
WIRE 3408 928 3408 816
WIRE 2768 976 2768 912
WIRE 3040 976 3040 816
WIRE 2240 1104 2240 624
WIRE 2768 1104 2768 1040
WIRE 3040 1104 3040 1056
WIRE 3408 1104 3408 1008
FLAG 2768 1104 0
FLAG 3040 1104 0
FLAG 3408 1104 0
FLAG 3168 624 0
FLAG 2240 1104 0
SYMBOL npn 2848 192 R270
WINDOW 3 56 68 Invisible 2
SYMATTR InstName Q1
SYMBOL npn 2720 352 R270
WINDOW 3 56 68 Invisible 2
SYMATTR InstName Q2
SYMBOL res 3104 256 R270
WINDOW 0 27 56 VTop 2
WINDOW 3 2 56 VBottom 2
SYMATTR InstName R5
SYMATTR Value 100
SYMBOL npn 2832 768 M0
WINDOW 3 56 68 Invisible 2
SYMATTR InstName Q4
SYMBOL zener 2784 1040 R180
WINDOW 0 24 64 Left 2
WINDOW 3 24 0 Invisible 2
SYMATTR InstName Dz
SYMATTR Value 1N750
SYMBOL res 2512 896 M90
WINDOW 0 2 56 VBottom 2
WINDOW 3 27 56 VTop 2
SYMATTR InstName R2
SYMATTR Value 3.3k
SYMBOL res 3024 960 R0
SYMATTR InstName R7
SYMATTR Value 680
SYMBOL res 3280 800 R90
WINDOW 0 2 56 VBottom 2
WINDOW 3 27 56 VTop 2
SYMATTR InstName R8
SYMATTR Value 2.2k
SYMBOL res 3392 912 R0
WINDOW 3 36 76 Invisible 2
SYMATTR InstName RL
SYMBOL TCLib\\Special\\arrow_curve 3440 912 R0
SYMATTR Value Vo
SYMATTR InstName X1
SYMBOL res 3392 512 R0
SYMATTR InstName R6
SYMATTR Value 0.18
SYMBOL npn 3104 416 M0
WINDOW 3 56 68 Invisible 2
SYMATTR InstName Q3
SYMBOL res 3328 448 R90
WINDOW 0 2 56 VBottom 2
WINDOW 3 27 56 VTop 2
SYMATTR InstName R4
SYMATTR Value 100
SYMBOL res 3152 496 R0
SYMATTR InstName R3
SYMATTR Value 10k
SYMBOL res 2512 192 R0
SYMATTR InstName R1
SYMATTR Value 820
SYMBOL Misc\\cell 2240 560 R0
WINDOW 123 0 0 Left 0
WINDOW 39 0 0 Left 0
SYMATTR InstName Vg
SYMATTR Value 40
RECTANGLE Normal 3568 1136 2160 64 2
