Version 4
SHEET 1 7772 18116
WIRE 80 48 48 48
WIRE 384 48 80 48
WIRE 544 48 384 48
WIRE 688 48 544 48
WIRE 832 48 688 48
WIRE 1088 48 928 48
WIRE 1280 48 1088 48
WIRE 1456 48 1280 48
WIRE 688 96 688 48
WIRE 1456 112 1456 48
WIRE 1088 144 1088 48
WIRE 688 208 688 176
WIRE 880 208 880 112
WIRE 880 208 688 208
WIRE 880 272 880 208
WIRE 1456 304 1456 256
WIRE 1088 320 1088 224
WIRE 1088 320 944 320
WIRE 544 416 544 48
WIRE 704 416 544 416
WIRE 880 416 880 368
WIRE 880 416 784 416
WIRE 1088 416 1088 320
WIRE 1280 416 1280 48
WIRE 880 464 880 416
WIRE 384 528 384 48
WIRE 880 576 880 528
WIRE 1088 576 1088 496
WIRE 384 688 384 608
WIRE 384 688 224 688
WIRE 544 688 384 688
WIRE 224 720 224 688
WIRE 544 720 544 688
WIRE 160 768 112 768
WIRE 1280 768 1280 496
WIRE 1280 768 608 768
WIRE 112 832 112 768
WIRE 1456 832 1456 768
WIRE 544 848 544 816
WIRE 544 848 384 848
WIRE 1280 848 1280 768
WIRE 384 896 384 848
WIRE 544 960 544 848
WIRE 64 1024 32 1024
WIRE 224 1024 224 816
WIRE 224 1024 64 1024
WIRE 384 1024 384 976
WIRE 384 1024 224 1024
WIRE 496 1024 384 1024
WIRE 1280 1024 1280 928
WIRE 1280 1024 592 1024
WIRE 1456 1024 1456 976
WIRE 1456 1024 1280 1024
FLAG 880 576 0
FLAG 1088 576 0
FLAG 112 832 0
FLAG 80 48 +30V
FLAG 64 1024 -30V
FLAG 1456 304 0
FLAG 1456 768 0
SYMBOL npn 832 112 R270
WINDOW 3 56 68 Invisible 2
SYMATTR InstName Q1
SYMBOL res 672 80 R0
SYMATTR InstName R1
SYMATTR Value 1k
SYMBOL npn 944 272 M0
WINDOW 3 56 68 Invisible 2
SYMATTR InstName Q2
SYMBOL zener 896 528 R180
WINDOW 0 24 64 Left 2
WINDOW 3 24 0 Invisible 2
SYMATTR InstName Dz
SYMATTR Value 1N750
SYMBOL res 688 400 M90
WINDOW 0 2 56 VBottom 2
WINDOW 3 27 56 VTop 2
SYMATTR InstName R2
SYMATTR Value 2.2k
SYMBOL res 1072 128 R0
SYMATTR InstName R3
SYMATTR Value 1.2k
SYMBOL res 1072 400 R0
SYMATTR InstName R4
SYMATTR Value 1k
SYMBOL res 1264 400 R0
SYMATTR InstName R5
SYMATTR Value 10k
SYMBOL res 1264 832 R0
SYMATTR InstName R6
SYMATTR Value 10k
SYMBOL pnp 608 816 R180
WINDOW 0 55 50 Left 2
WINDOW 3 84 68 Invisible 2
SYMATTR InstName Q4
SYMBOL res 368 512 R0
SYMATTR InstName R7
SYMATTR Value 5.6k
SYMBOL pnp 160 816 M180
WINDOW 0 65 50 Left 2
WINDOW 3 84 68 Invisible 2
SYMATTR InstName Q3
SYMBOL pnp 496 960 M90
WINDOW 0 66 64 VLeft 2
WINDOW 3 84 68 Invisible 2
SYMATTR InstName Q5
SYMBOL res 368 880 R0
SYMATTR InstName R8
SYMATTR Value 1k
SYMBOL TCLib\\Special\\arrow 1456 208 R270
WINDOW 3 21 -30 VCenter 2
SYMATTR Value V1
SYMATTR InstName X2
SYMBOL TCLib\\Special\\arrow 1456 880 M90
WINDOW 3 23 -30 VCenter 2
SYMATTR Value V2
SYMATTR InstName X3
RECTANGLE Normal 1504 1056 0 0 2
