Version 4
SHEET 1 7772 18116
WIRE 256 48 48 48
WIRE 464 48 256 48
WIRE 720 48 560 48
WIRE 944 48 720 48
WIRE 256 128 256 48
WIRE 720 224 720 48
WIRE 256 320 256 208
WIRE 512 320 512 112
WIRE 512 320 256 320
WIRE 48 352 48 48
WIRE 512 400 512 320
WIRE 720 448 720 304
WIRE 720 448 576 448
WIRE 720 560 720 448
WIRE 944 560 944 48
WIRE 48 736 48 416
WIRE 512 736 512 496
WIRE 720 736 720 640
WIRE 944 736 944 640
FLAG 512 736 0
FLAG 944 736 0
FLAG 48 736 0
FLAG 720 736 0
SYMBOL npn 464 112 R270
WINDOW 3 56 68 Invisible 2
SYMATTR InstName Q1
SYMBOL npn 576 400 M0
WINDOW 3 56 68 Invisible 2
SYMATTR InstName Q2
SYMBOL res 704 208 R0
SYMATTR InstName Ra
SYMATTR Value 4300
SYMBOL res 928 544 R0
WINDOW 3 36 68 Left 2
SYMATTR Value 100
SYMATTR InstName RL
SYMBOL TCLib\\Special\\arrow_curve 976 544 R0
SYMATTR Value Vo
SYMATTR InstName X20
SYMBOL res 240 112 R0
SYMATTR InstName R1
SYMATTR Value 1k
SYMBOL Misc\\cell 48 352 R0
WINDOW 123 0 0 Left 0
WINDOW 39 0 0 Left 0
SYMATTR InstName Vg1
SYMATTR Value 10
SYMBOL res 704 544 R0
SYMATTR InstName Rb
SYMATTR Value 700
RECTANGLE Normal 1072 800 0 0 2
