Version 4
SHEET 1 7772 18116
WIRE 240 80 80 80
WIRE 368 80 240 80
WIRE 496 80 368 80
WIRE 688 80 496 80
WIRE 1248 80 784 80
WIRE 368 160 368 80
WIRE 736 192 736 144
WIRE 960 192 736 192
WIRE 1248 192 1248 80
WIRE 1248 192 1040 192
WIRE 496 240 496 80
WIRE 560 240 496 240
WIRE 736 240 736 192
WIRE 736 240 656 240
WIRE 368 352 368 240
WIRE 608 352 608 304
WIRE 608 352 368 352
WIRE 880 352 608 352
WIRE 880 368 880 352
WIRE 1008 416 944 416
WIRE 1072 416 1008 416
WIRE 1248 416 1248 192
WIRE 1248 416 1152 416
WIRE 1008 464 1008 416
WIRE 1248 480 1248 416
WIRE 80 512 80 80
WIRE 1008 576 1008 544
WIRE 880 640 880 464
WIRE 1248 640 1248 560
WIRE 1248 640 880 640
WIRE 608 720 608 352
WIRE 880 768 672 768
WIRE 1024 768 880 768
WIRE 1248 768 1248 640
WIRE 1248 768 1104 768
WIRE 240 864 240 80
WIRE 368 864 240 864
WIRE 608 864 608 816
WIRE 608 864 448 864
WIRE 1248 880 1248 768
WIRE 608 928 608 864
WIRE 880 928 880 768
WIRE 80 1056 80 576
WIRE 608 1056 608 992
WIRE 880 1056 880 1008
WIRE 1248 1056 1248 960
FLAG 608 1056 0
FLAG 880 1056 0
FLAG 1248 1056 0
FLAG 1008 576 0
FLAG 80 1056 0
SYMBOL npn 688 144 R270
WINDOW 3 56 68 Invisible 2
SYMATTR InstName Q1
SYMBOL npn 560 304 R270
WINDOW 3 56 68 Invisible 2
SYMATTR InstName Q2
SYMBOL res 944 208 R270
WINDOW 0 27 56 VTop 2
WINDOW 3 2 56 VBottom 2
SYMATTR InstName R5
SYMATTR Value 100
SYMBOL npn 672 720 M0
WINDOW 3 56 68 Invisible 2
SYMATTR InstName Q4
SYMBOL zener 624 992 R180
WINDOW 0 24 64 Left 2
WINDOW 3 24 0 Invisible 2
SYMATTR InstName Dz
SYMATTR Value 1N750
SYMBOL res 352 848 M90
WINDOW 0 2 56 VBottom 2
WINDOW 3 27 56 VTop 2
SYMATTR InstName R2
SYMATTR Value 3.3k
SYMBOL res 864 912 R0
SYMATTR InstName R7
SYMATTR Value 680
SYMBOL res 1120 752 R90
WINDOW 0 2 56 VBottom 2
WINDOW 3 27 56 VTop 2
SYMATTR InstName R8
SYMATTR Value 2.2k
SYMBOL res 1232 864 R0
WINDOW 3 36 76 Invisible 2
SYMATTR InstName RL
SYMBOL TCLib\\Special\\arrow_curve 1280 864 R0
SYMATTR Value Vo
SYMATTR InstName X1
SYMBOL res 1232 464 R0
SYMATTR InstName R6
SYMATTR Value 0.18
SYMBOL npn 944 368 M0
WINDOW 3 56 68 Invisible 2
SYMATTR InstName Q3
SYMBOL res 1168 400 R90
WINDOW 0 2 56 VBottom 2
WINDOW 3 27 56 VTop 2
SYMATTR InstName R4
SYMATTR Value 100
SYMBOL res 992 448 R0
SYMATTR InstName R3
SYMATTR Value 10k
SYMBOL res 352 144 R0
SYMATTR InstName R1
SYMATTR Value 820
SYMBOL Misc\\cell 80 512 R0
WINDOW 123 0 0 Left 0
WINDOW 39 0 0 Left 0
SYMATTR InstName Vg
SYMATTR Value 40
RECTANGLE Normal 1408 1136 0 0 2
